/*--------------------------------*- C++ -*----------------------------------*\
  =========                 |
  \\      /  F ield         | OpenFOAM: The Open Source CFD Toolbox
   \\    /   O peration     | Website:  https://openfoam.org
    \\  /    A nd           | Version:  dev
     \\/     M anipulation  |
\*---------------------------------------------------------------------------*/
FoamFile
{
    version     2.0;
    format      ascii;
    class       dictionary;
    location    "system";
    object      fvSchemes;
}
// * * * * * * * * * * * * * * * * * * * * * * * * * * * * * * * * * * * * * //

ddtSchemes
{
    default         Euler;
}

gradSchemes
{
    default         Gauss linear;
}

divSchemes
{
    div(phi,T)     Gauss linear; //     MPDATA
    /*{
        nCorr 0;  //(>=0)
        gauge 0;
        offCentre 0;
        timeCorrector advective; // flux, advective or none
        FCTlimit false;
        //FCTmin 0;
        //FCTmax 1.00263;
    };*/
    MPDATA_div Gauss linear;
}

laplacianSchemes
{
    default         none;
}

interpolationSchemes
{
    default         none;
    MPDATA_denom   reverseLinear;
    MPDATA_velocity linear;
    MPDATA_gradient linear;
    MPDATA_idiv linear;
}

snGradSchemes
{
    default         uncorrected;
}


// ************************************************************************* //
