FoamFile
{
    version         2.3;
    format          ascii;

    root            "";
    case            "";
    instance        "constant";
    local           "";

    class           dictionary;
    object          gmtDict;
}

// How to plot
// Compulsory inputs
projection "X40c/10c";
projection2D XZ;

FieldsToPlot
(
    [sigma.buoyant rawValues 0 1 0.1 "$GMTU/colours/white_grey.cpt"]
    [massTransfer.stable.buoyant contours .5e-4 2.5e-4 1e-4  "blue,5_5:,"]
    [massTransfer.stable.buoyant contours 3.5e-4 1e-3 1e-4  "blue"]
    [massTransfer.buoyant.stable contours .5e-4 2.5e-4 1e-4  "red,5_5:,"]
    [massTransfer.buoyant.stable contours 3.5e-4 1e-3 1e-4  "red"]
);

separateLegend true;
//region "0/10/-0.1/1.1";
plotBoundaryDots false;
//annotate "minMax 3 1.3";
