FoamFile
{
    version         2.3;
    format          ascii;

    root            "";
    case            "";
    instance        "constant";
    local           "";

    class           dictionary;
    object          gmtDict;
}

// How to plot
// Compulsory inputs
projection "X12c/12c";
projection2D XZ;

FieldsToPlot
(
    [theta filledContours 297.95 302.05 0.2 "$GMTU/colours/red_white_blue.cpt"]
    [Uf vectors 0 17 "black"]
    [thetap filledContours -2.05 2.05 0.1 "$GMTU/colours/red_white_blue.cpt"]
    [Co contours 1 100 1 "black"]
);

separateLegend true;
region "-5e3/5e3/0/1e4";
annotate "minMax -1.2e3 400";
boundaryMarks "2500/2500";
plotBoundaryDots false;

