/*--------------------------------*- C++ -*----------------------------------*\
| =========                 |                                                 |
| \\      /  F ield         | OpenFOAM: The Open Source CFD Toolbox           |
|  \\    /   O peration     | Version:  2.3.0                                 |
|   \\  /    A nd           | Web:      www.OpenFOAM.org                      |
|    \\/     M anipulation  |                                                 |
\*---------------------------------------------------------------------------*/
FoamFile
{
    version     2.0;
    format      ascii;
    class       dictionary;
    location    "constant";
    object      RASProperties;
}
// * * * * * * * * * * * * * * * * * * * * * * * * * * * * * * * * * * * * * //

simulationType RAS;

RAS
{
    RASModel        stratifiedRealizableLogKE;
    turbulence      on;
    printCoeffs     on;
    //kMin            1e-6;
    //epsilonMin      1e-100;

    stratifiedRealizableLogKECoeffs
    {
        A0              4.0;
        C2              1.9;
        C3              1.46;
        C4              0.44;
        C5              0.08;
        sigmak          1;
        sigmaEps        1.2;
        sigmaTheta      0.74;
    }

}



// ************************************************************************* //
