/*---------------------------------------------------------------------------*\
| =========                 |                                                 |
| \\      /  F ield         | OpenFOAM: The Open Source CFD Toolbox           |
|  \\    /   O peration     | Version:  1.4                                   |
|   \\  /    A nd           | Web:      http://www.openfoam.org               |
|    \\/     M anipulation  |                                                 |
\*---------------------------------------------------------------------------*/

FoamFile
{
    version         2.0;
    format          ascii;

    root            "";
    case            "";
    instance        "";
    local           "";

    class           dictionary;
    object          blockMeshDict;
}

// * * * * * * * * * * * * * * * * * * * * * * * * * * * * * * * * * * * * * //

convertToMeters 1;

vertices
(
    (-10 1  0)         // 0
    ( 10 1  0)         // 1
    ( 10 1  1)        // 2
    (-10 1  1)        // 3
    (-10 0  0)         // 4
    ( 10 0  0)         // 5
    ( 10 0  1)        // 6
    (-10 0  1)        // 7
);

blocks
(
    hex (0 1 2 3 4 5 6 7) (721 40 1)
    simpleGrading
    (
        1
        (
            (0.1 0.16 4)   // 10% y-dir, 24% cells, expansion = 4
            (0.8 0.68 1)    // 80% y-dir, 52% cells, expansion = 1
            (0.1 0.16 0.25) // 10% y-dir, 24% cells, expansion = 0.25
        )
        1
    )
);

edges
(
);

boundary
(
    ground
    {
        type wall;
        faces
        (
            (1 5 4 0)
            //(11 10 8 9)
        );
    }
    top
    {
        type wall;
        faces
        (
            (3 7 6 2)
            //(13 12 14 15)
        );
    }
    left
    {
        type cyclic;
        neighbourPatch right;
        faces
        (
            (0 4 7 3)
            //(0 4 8 9)
            //(7 3 13 12)
        );
    }
    right
    {
        type cyclic;
        neighbourPatch left;
        faces
        (
            (1 5 6 2)
            //(5 10 11 1)
            //(2 15 14 6)
        );
    }
    frontAndBack
    {
        type empty;
        faces
        (
            (0 3 2 1)
            (4 5 6 7)
            //(3 2 15 13)
            //(1 0 9 11)
            //(4 5 10 8)
            //(6 7 12 14)
        );
    }
);

mergePatchPairs
(
);

// ************************************************************************* //
