FoamFile
{
    version         2.3;
    format          ascii;

    root            "";
    case            "";
    instance        "constant";
    local           "";

    class           dictionary;
    object          gmtDict;
}

// How to plot
// Compulsory inputs
projection "X10.1c/10c";
projection2D XZ;

FieldsToPlot
(
    [sigma.buoyant rawValues 0 1 0.1 "$GMTU/colours/white_grey.cpt"]

    [b.buoyant  contours  0.003 0.063 0.006 "0.5,red"]
    [b.buoyant  contours  -0.063 -0.003 0.006 "0.5,red,12_12:0"]
    [u.buoyant vectors  200 8 "red"]

    [b.stable  contours  0.003 0.063 0.006 "0.5,blue"]
    [b.stable  contours  -0.063 -0.003 0.006 "0.5,blue,12_12:0"]
    [u.stable vectors  200 6 "blue"]
);

separateLegend true;
region "-10e3/100/0/10e3";
boundaryMarks "5000/2500";
plotBoundaryDots false;
