FoamFile
{
    version         2.3;
    format          ascii;

    root            "";
    case            "";
    instance        "constant";
    local           "";

    class           dictionary;
    object          gmtDict;
}

// How to plot
// Compulsory inputs
projection "X12c/12c";
projection2D XZ;

FieldsToPlot
(
    [b rawValues 0 0.06 0.003 "$GMTU/colours/white_blue_red.cpt"]
    //[sigma.buoyant contours 0.05 0.95 0.1 "2,green"]
    //[u vectors 50 7 "black"]
    //[uz contours        0 1000 1000 "3,white"]
    //[uz contours        0 1000 1000 "2,black,1_2:"]
    [u.stable vectors 100 8 "blue"]
    [u.buoyant vectors 100 8 "red"]
);

separateLegend true;
region "-5000/5000/0/1e4";
//region "-2500/2500/0/5000";
boundaryMarks "5e3/5e3";
plotBoundaryDots false;
