FoamFile
{
    version         2.3;
    format          ascii;

    root            "";
    case            "";
    instance        "constant";
    local           "";

    class           dictionary;
    object          gmtDict;
}

// How to plot
// Compulsory inputs
projection "X18c/18c";
projection2D XZ;

FieldsToPlot
(
    [P  rawValues  0 0 0 "$GMTU/colours/red_white_blue.cpt"]
    [Pi.stable contours 0 0 0 "black"]
);

separateLegend true;
region "-5e3/5e3/0/1e4";
//region "-2500/2500/0/5000";
boundaryMarks "2500/2500";
plotBoundaryDots false;
