FoamFile
{
    version         2.3;
    format          ascii;

    root            "";
    case            "";
    instance        "constant";
    local           "";

    class           dictionary;
    object          gmtDict;
}

// How to plot
// Compulsory inputs
projection "X10.1c/10c";
projection2D XZ;

FieldsToPlot
(
    [sigma.buoyant rawValues 0 1 0.1 "$GMTU/colours/white_grey.cpt"]
    [P  colouredContours -95 95 10 "$GMTU/colours/red_white_blue.cpt"]

    [p.stable colouredContours -95 95 10 "$GMTU/colours/blue.cpt"]
    [u.stable vectors  200 8 "blue"]

    [p.buoyant colouredContours -95 95 10 "$GMTU/colours/red.cpt"]
    [u.buoyant vectors  200 6 "red"]
);

separateLegend true;
region "-10e3/100/0/10e3";
boundaryMarks "5000/2500";
plotBoundaryDots false;
