FoamFile
{
    version         2.3;
    format          ascii;

    root            "";
    case            "";
    instance        "constant";
    local           "";

    class           dictionary;
    object          gmtDict;
}

// How to plot
// Compulsory inputs
projection "X40c/4c";
projection2D XZ;

FieldsToPlot
(
    [uz rawValues -7.25 7.25 0.5 "$GMTU/colours/red_white_blue.cpt"]
);

separateLegend true;
//region "0/10/-0.1/1.1";
plotBoundaryDots false;
annotate "minMax 3 1.3";
