/*--------------------------------*- C++ -*----------------------------------*\
| =========                 |                                                 |
| \\      /  F ield         | OpenFOAM: The Open Source CFD Toolbox           |
|  \\    /   O peration     | Version:  dev                                   |
|   \\  /    A nd           | Web:      www.OpenFOAM.org                      |
|    \\/     M anipulation  |                                                 |
\*---------------------------------------------------------------------------*/
FoamFile
{
    version     2.0;
    format      ascii;
    class       dictionary;
    object      setFieldsDict;
}
// * * * * * * * * * * * * * * * * * * * * * * * * * * * * * * * * * * * * * //

regions
(
    // s[1] = 1 at the bottom and zero above
    boxToCell
    {
        box (-80e3 0 0) (80e3 1000 250);
        fieldValues
        (
            volScalarFieldValue sigma.buoyant 1
            volScalarFieldValue sigma.stable 0
        );
    }
);

// ************************************************************************* //
