FoamFile
{
    version         2.3;
    format          ascii;

    root            "";
    case            "";
    instance        "constant";
    local           "";

    class           dictionary;
    object          gmtDict;
}

// How to plot
// Compulsory inputs
projection "X12c/12c";
projection2D XZ;

FieldsToPlot
(
    [epsilon.stable filledContours 0 5e-10 2.5e-11 "$GMTU/colours/white_blue_red.cpt"]
    [Uf.stable vectors  50 26 "black"]
);

separateLegend true;
region "-5000/5000/0/1e4";
//region "0/9e3/0/9e3";
//annotate "minMax -3e3 -800";
boundaryMarks "2.5e3/2.5e3";
plotBoundaryDots false;
