FoamFile
{
    version         2.3;
    format          ascii;

    root            "";
    case            "";
    instance        "constant";
    local           "";

    class           dictionary;
    object          gmtDict;
}

// How to plot
// Compulsory inputs
projection "X12c/12c";
projection2D XZ;

FieldsToPlot
(
    [sigma.buoyant filledContours 0 1 0.1 "$GMTU/colours/white_grey.cpt"]
    [k.stable colouredContours 0 2e-3 1e-4 "$GMTU/colours/white_blue_red.cpt"]
);

separateLegend true;
region "-5000/5000/0/1e4";
//region "0/9e3/0/9e3";
//annotate "minMax -3e3 -800";
boundaryMarks "2.5e3/2.5e3";
plotBoundaryDots false;
