FoamFile
{
    version         2.3;
    format          ascii;

    root            "";
    case            "";
    instance        "constant";
    local           "";

    class           dictionary;
    object          gmtDict;
}

// How to plot
// Compulsory inputs
projection "X12c/12c";
projection2D XZ;

FieldsToPlot
(
    [nut.stable    filledContours 0 5000 500 "$GMTU/colours/white_blue_red.cpt"]
    [nut.buoyant   colouredContours 0 1 0.1 "$GMTU/colours/white_blue_red.cpt"]
    [Uf.buoyant vectors 200 1 "red"]
    [Uf.stable vectors  200 1 "black"]
);

separateLegend true;
region "0/5e3/0/5e3";
//annotate "minMax 500 -400";
boundaryMarks "500/500";
plotBoundaryDots false;
