FoamFile
{
    version         2.3;
    format          ascii;

    root            "";
    case            "";
    instance        "constant";
    local           "";

    class           dictionary;
    object          gmtDict;
}

// How to plot
// Compulsory inputs
projection "X18c/18c";
projection2D XZ;

FieldsToPlot
(
    [buoyant.sigma filledContours -1.15 1.15 0.1 "$GMTU/colours/red_white_blue.cpt"]
    [buoyant.sigma contours -0.0105 -0.00025 0.00025 "black"]
    [buoyant.Uf vectors 100 13 "blue"]
    [stable.Uf vectors 100 13 "black"]
//    [stable.Uf vectors 100 1 "black"]
//    [buoyant.Uf vectors 100 1 "blue"]
);

//separateLegend true;
region "-5000/5000/0/1e4";
annotate "minMax -1.2e3 400";
boundaryMarks "2500/2500";
plotBoundaryDots false;
