FoamFile
{
    version         2.2;
    format          ascii;

    root            "";
    case            "";
    instance        "constant";
    local           "";

    class           dictionary;
    object          gmtDict;
}

// How to plot
// Compulsory inputs
projection "X40c/15c";
projection2D XZ;

FieldsToPlot
(
    [none mesh "black"]
);

plotBoundaryDots false;
region "-10e3/30e3/0/15e3";
