FoamFile
{
    version         2.2;
    format          ascii;

    root            "";
    case            "";
    instance        "constant";
    local           "";

    class           dictionary;
    object          gmtDict;
}

// How to plot
// Compulsory inputs
projection "X52c/4c";
projection2D XZ;

FieldsToPlot
(
    [nu filledContours 0 100 5 "$GMTU/colours/white_blue_red.cpt"]
);

plotBoundaryDots false;
separateLegend true;
