FoamFile
{
    version         2.2;
    format          ascii;

    root            "";
    case            "";
    instance        "constant";
    local           "";

    class           dictionary;
    object          gmtDict;
}

// How to plot
// Compulsory inputs
projection "X52c/6c";
projection2D XZ;

FieldsToPlot
(
    [u vectors 50 5 "black"]
    [tracer contours 0.5 1.5 1 "2,green"]
);

plotBoundaryDots true;
