/*---------------------------------------------------------------------------*\
| =========                 |                                                 |
| \\      /  F ield         | OpenFOAM: The Open Source CFD Toolbox           |
|  \\    /   O peration     | Version:  1.4                                   |
|   \\  /    A nd           | Web:      http://www.openfoam.org               |
|    \\/     M anipulation  |                                                 |
\*---------------------------------------------------------------------------*/

FoamFile
{
    version         2.0;
    format          ascii;

    root            "";
    case            "";
    instance        "";
    local           "";

    class           dictionary;
    object          transferProperties;
}

// * * * * * * * * * * * * * * * * * * * * * * * * * * * * * * * * * * * * * //

fluids  (down up);
transferType dwdzTransfer;
transferScale 1;
entRate       0;
detrainRate   0;
minSigma  2(0 0);

wTransferScale 1;
bTransferScale 0;

Ksigma Ksigma [0 2 -1 0 0] 1e-4;
// gamma = gammaHat0 nu Ra^.25 Pr^-.25
// Ra = 1e8 Pr = 0.707 nu = 8.4083292038e-5
gamma    gamma    [0 2 -1 0 0] 0.02; //0.0091696942; //(gammaHat = 1)


cloudRadius     cloudRadius [0 1 0 0 0] 1;
dragCoeff 0;

// ************************************************************************* //
