/*--------------------------------*- C++ -*----------------------------------*\
| =========                 |                                                 |
| \\      /  F ield         | OpenFOAM: The Open Source CFD Toolbox           |
|  \\    /   O peration     | Version:  1.5                                   |
|   \\  /    A nd           | Web:      http://www.OpenFOAM.org               |
|    \\/     M anipulation  |                                                 |
\*---------------------------------------------------------------------------*/
FoamFile
{
    version     2.0;
    format      ascii;
    class       dictionary;
    object      fvSolution;
}
// * * * * * * * * * * * * * * * * * * * * * * * * * * * * * * * * * * * * * //

nOuterCorrections 1;

solvers
{
    T
    {
        solver smoothSolver; //GAMG; //PBiCG;//PBiCGStab; //
        //preconditioner DILU; //none; //diagonal; //GAMG;
        smoother   DILUGaussSeidel; //symGaussSeidel; //nonBlockingGaussSeidel; //DILU; //GaussSeidel;
        tolerance       1e-14;
        relTol          0;
        maxIter         1;
    }
}

// ************************************************************************* //
