/*---------------------------------------------------------------------------*\
| =========                 |                                                 |
| \\      /  F ield         | OpenFOAM: The Open Source CFD Toolbox           |
|  \\    /   O peration     | Version:  1.4                                   |
|   \\  /    A nd           | Web:      http://www.openfoam.org               |
|    \\/     M anipulation  |                                                 |
\*---------------------------------------------------------------------------*/

FoamFile
{
    version         2.0;
    format          ascii;

    root            "";
    case            "";
    instance        "";
    local           "";

    class           dictionary;
    object          fvSchemes;
}

// * * * * * * * * * * * * * * * * * * * * * * * * * * * * * * * * * * * * * //


ddtSchemes
{
    default Euler;
}

gradSchemes
{
    default         Gauss linear; //leastSquares;
}

divSchemes
{
    default        none;
    implicit       Gauss linearUpwind linearUpwind;
    explicit       Gauss linearUpwind linearUpwind;
    div(phi,T)     LaxWendroff
    {
        nCorr 2;
        offCentre 0;
        FCTlimit true;
        timeCorrector flux;
    };
}

laplacianSchemes
{
    default         Gauss linear uncorrected;
}

interpolationSchemes
{
    default        linear;
}

snGradSchemes
{
    default         uncorrected;
}

fluxRequired
{
    ProjectionP;
    T;
}


// ************************************************************************* //
