/*--------------------------------*- C++ -*----------------------------------*\
| =========                 |                                                 |
| \\      /  F ield         | OpenFOAM: The Open Source CFD Toolbox           |
|  \\    /   O peration     | Version:  1.5                                   |
|   \\  /    A nd           | Web:      http://www.OpenFOAM.org               |
|    \\/     M anipulation  |                                                 |
\*---------------------------------------------------------------------------*/
FoamFile
{
    version     2.0;
    format      ascii;
    class       dictionary;
    object      fvSolution;
}
// * * * * * * * * * * * * * * * * * * * * * * * * * * * * * * * * * * * * * //

solvers
{
    rho
    {
        solver PCG;
        preconditioner   diagonol;
        tolerance        0;
        relTol           0;
    };
    Exner
    {
        solver PCG;
        preconditioner DIC;
        tolerance        1e-12;
        relTol           0.001;
    }
    ExnerFinal
    {
        $Exner;
        tolerance        1e-16;
        relTol           0;
    }
    
    "(k|epsilon|theta|U|w)"
    {
        solver          PBiCGStab;
        preconditioner  DILU;
        tolerance       1e-10;
        relTol           0;
        //maxIter          2;
    }
}

iterations
{
    nOuterCorrectors 2;
    nCorrectors      2;
    nNonOrthogonalCorrectors 0;
}

initialisation
{
    maxIters 100;
    refCell 0;
    refExner 1;
}

// ************************************************************************* //
