/*---------------------------------------------------------------------------*\
| =========                 |                                                 |
| \\      /  F ield         | OpenFOAM: The Open Source CFD Toolbox           |
|  \\    /   O peration     | Version:  1.4                                   |
|   \\  /    A nd           | Web:      http://www.openfoam.org               |
|    \\/     M anipulation  |                                                 |
\*---------------------------------------------------------------------------*/

FoamFile
{
    version         2.0;
    format          ascii;

    root            "";
    case            "";
    instance        "";
    local           "";

    class           dictionary;
    object          thermophysicalProperties;
}

// * * * * * * * * * * * * * * * * * * * * * * * * * * * * * * * * * * * * * //

Boussinesq    false;
hydrostatic   false;

Tref       1000;
pRef     100000;

mixture//  air 1 28.9 1000 0 1.8e-05 0.7;
{
    specie
    {
        molWeight       83.1447;
    }
    thermodynamics
    {
        Cp              1000;
        Hf              0;
    }
    transport
    {
        mu              1e-4;
        Pr              1;
    }
}

thermoType 
{
    type            heRhoThermo;
    mixture         pureMixture;
    transport       const;
    thermo          hConst;
    equationOfState perfectGas;
    specie          specie;
    energy          sensibleEnthalpy;
}

// ************************************************************************* //
