/*---------------------------------------------------------------------------*\
| =========                 |                                                 |
| \\      /  F ield         | OpenFOAM: The Open Source CFD Toolbox           |
|  \\    /   O peration     | Version:  1.4                                   |
|   \\  /    A nd           | Web:      http://www.openfoam.org               |
|    \\/     M anipulation  |                                                 |
\*---------------------------------------------------------------------------*/

FoamFile
{
    version         2.0;
    format          ascii;

    root            "";
    case            "";
    instance        "";
    local           "";

    class           dictionary;
    object          environmentalProperties;
}

// * * * * * * * * * * * * * * * * * * * * * * * * * * * * * * * * * * * * * //

g               g [0 1 -2 0 0 0 0] (0 0 -9.81);
Omega           Omega [0 0 -1 0 0 0 0] (0 0 0);

// Sponge layer coefficients
// MDW+10 uses mu dt = 0.3 for dt=20 and dt=150. Maybe change this?
spongeOrientation (0 0 0 0 0 0 0 0 1);
type sinusoidal;
a_z 0.15;
b_z -0.15;
L_z 20e3;
phi_z 30e3;
k_z 0.5;
zmin 30e3;


// ************************************************************************* //
