/*---------------------------------------------------------------------------*\
| =========                 |                                                 |
| \\      /  F ield         | OpenFOAM: The Open Source CFD Toolbox           |
|  \\    /   O peration     | Version:  1.4                                   |
|   \\  /    A nd           | Web:      http://www.openfoam.org               |
|    \\/     M anipulation  |                                                 |
\*---------------------------------------------------------------------------*/

FoamFile
{
    version         2.0;
    format          ascii;

    root            "";
    case            "";
    instance        "";
    local           "";

    class           dictionary;
    object          environmentalProperties;
}

// * * * * * * * * * * * * * * * * * * * * * * * * * * * * * * * * * * * * * //

g               g [0 1 -2 0 0 0 0] (0 0 -9.81);
Omega           Omega [0 0 -1 0 0 0 0] (0 0 0);

// Sponge layer coefficients
// MDW+10 uses mu dt = 0.3 for dt=20 and dt=150. Maybe change this?
type polynomial;
polyMin 0;
//polyMax 0;

// Sponge = a z - b
// z=5e4, Sponge = 0.3
// z = 3e4, Sponge = 0
// So gradient = .3/2e4

a_const -0.45;
a_z 1.5e-5;


// ************************************************************************* //
