FoamFile
{
    version         1.4;
    format          ascii;

    root            "";
    case            "";
    instance        "constant";
    local           "";

    class           dictionary;
    object          gmtDict;    
}

// How to plot
// Compulsory inputs
projection "X18c/18c";          // see man psxy for details on -J options
projection2D XY;                // either XY, XZ, YZ or latLon
plotBoundaryDots false;


// A list of the fields to plot with plotting details
FieldsToPlot
(
    [hDiff rawValues 0 0 0 "$GMTU/colours/red_white_blue.cpt"]
    [UDiff vectors 0 1 "black"]
);

//annotate "minMax 0 -15000";
annotate "minMax 800e3 798e3";
region "800e3/1200e3/800e3/1200e3";

