/*---------------------------------------------------------------------------*\
| =========                 |                                                 |
| \\      /  F ield         | OpenFOAM: The Open Source CFD Toolbox           |
|  \\    /   O peration     | Version:  1.4                                   |
|   \\  /    A nd           | Web:      http://www.openfoam.org               |
|    \\/     M anipulation  |                                                 |
\*---------------------------------------------------------------------------*/

FoamFile
{
    version         2.0;
    format          ascii;

    root            "";
    case            "";
    instance        "";
    local           "";

    class           dictionary;
    object          fvSchemes;
}

// * * * * * * * * * * * * * * * * * * * * * * * * * * * * * * * * * * * * * //

ddtSchemes
{
    default Euler;
}

gradSchemes
{
    default         none;
}

divSchemes
{
    default             none;
    div(phi,T)          LaxWendroff
    {
        offCentre -1;
        timeCorrector advective; //flux;//  or none
        FCTlimit false;
        //FCTmin 0;
        //FCTmax 1.00263;
    };
}

laplacianSchemes
{
    default         none;
}

interpolationSchemes
{
    default        linear;
}

snGradSchemes
{
    default         none;
}

fluxRequired
{
    T;
}
// ************************************************************************* //
