/*---------------------------------------------------------------------------*\
| =========                 |                                                 |
| \\      /  F ield         | OpenFOAM: The Open Source CFD Toolbox           |
|  \\    /   O peration     | Version:  1.4                                   |
|   \\  /    A nd           | Web:      http://www.openfoam.org               |
|    \\/     M anipulation  |                                                 |
\*---------------------------------------------------------------------------*/

FoamFile
{
    version         2.0;
    format          ascii;

    root            "";
    case            "";
    instance        "";
    local           "";

    class           dictionary;
    object          transferProperties;
}

// * * * * * * * * * * * * * * * * * * * * * * * * * * * * * * * * * * * * * //

noTransfers false;
// Drag parameters
cloudRadius cloudRadius [0 1 0 0 0] 1;
dragCoeff 1;
// Diffusion coefficient for sigma
Ksigma Ksigma [0 2 -1 0 0] 100;
// Transfer between partitions based on horizontal divergence
divTransfer 1;
// Transfer between partitions based on dwdz
dwdzTransfer 0;
// Transfer w=0 if sigma=1
wTransfer0  true;
wPrimeCoeff 0;
// Transfer to keep w[0] > 1 when sigma[0] >0
wTransfer  true;
// Mininum allowable sigma in any fluid
minSigma  0;
// Fix transfers so that sigma is read in and kept fixed at locations given in
// constant/transferLocation
uniformSigma false;
// Fluids transferred are a linear combination of donating and receiving fluids
bAnomalyLinearCoeff 0;
// Transfer buoyancy anomalies based on constant factor times mean buoyancy
bAnomalyMeanCoeff 0;
// Transfer buoyancy to keep fluid 0 decending and fluid 1 ascending
keepWseparate false;

// ************************************************************************* //
