/*--------------------------------*- C++ -*----------------------------------*\
| =========                 |                                                 |
| \\      /  F ield         | OpenFOAM: The Open Source CFD Toolbox           |
|  \\    /   O peration     | Version:  1.5                                   |
|   \\  /    A nd           | Web:      http://www.OpenFOAM.org               |
|    \\/     M anipulation  |                                                 |
\*---------------------------------------------------------------------------*/
FoamFile
{
    version     2.0;
    format      ascii;
    class       dictionary;
    object      fvSolution;
}
// * * * * * * * * * * * * * * * * * * * * * * * * * * * * * * * * * * * * * //

solvers
{
    P
    {
        solver GAMG;
        smoother DICGaussSeidel;
        tolerance        1e-6;
        relTol           0;
    }

    tracer
    {
        solver PBiCG;
        preconditioner DILU;
        tolerance        1e-6;
        relTol           0;
    }
}
pRefCell -1;

iterations
{
    nOuterCorrectors 2;
    nCorrectors      1;
    nNonOrthogonalCorrectors 1;
}


// ************************************************************************* //
