/*---------------------------------------------------------------------------*\
| =========                 |                                                 |
| \\      /  F ield         | OpenFOAM: The Open Source CFD Toolbox           |
|  \\    /   O peration     | Version:  1.4                                   |
|   \\  /    A nd           | Web:      http://www.openfoam.org               |
|    \\/     M anipulation  |                                                 |
\*---------------------------------------------------------------------------*/

FoamFile
{
    version         2.0;
    format          ascii;

    root            "";
    case            "";
    instance        "";
    local           "";

    class           dictionary;
    object          environmentalProperties;
}

// * * * * * * * * * * * * * * * * * * * * * * * * * * * * * * * * * * * * * //

nu       nu       [0 2 -1 0 0] 70.7;
alpha    alpha    [0 2 -1 0 0] 1e2;
gamma    gamma    [0 2 -1 0 0] 0;
Psigma   Psigma   [0 2 -2 0 0] -1e3;
adjustQ   false;

// ************************************************************************* //
