/*---------------------------------------------------------------------------*\
| =========                 |                                                 |
| \\      /  F ield         | OpenFOAM: The Open Source CFD Toolbox           |
|  \\    /   O peration     | Version:  1.4                                   |
|   \\  /    A nd           | Web:      http://www.openfoam.org               |
|    \\/     M anipulation  |                                                 |
\*---------------------------------------------------------------------------*/

FoamFile
{
    version         2.0;
    format          ascii;

    root            "";
    case            "";
    instance        "";
    local           "";

    class           dictionary;
    object          fvSchemes;
}

// * * * * * * * * * * * * * * * * * * * * * * * * * * * * * * * * * * * * * //

SIgravityWaves true;
implicitU      false;
implicitT      false;
hydrostatic    true;

ddtSchemes
{
    ocCoeff      0;
    default      CrankNicolson $ocCoeff;
}

gradSchemes
{
    default        Gauss linear;
    limitDiv   Gauss linear;
}

divSchemes
{
    default none;
    div(phi,theta)   Gauss CoBlended 1 linearUpwind limitDiv 2 upwind;
    div(phi,u)        Gauss CoBlended 1 linearUpwind limitDiv 2 upwind;
    div(phi,w)        Gauss CoBlended 1 linearUpwind limitDiv 2 upwind;
    div(((rho*nuEff)*dev2(T(grad(U))))) Gauss linear corrected;
}

laplacianSchemes
{
    default         Gauss linear corrected;
}

interpolationSchemes
{
    default        linear;
}

snGradSchemes
{
    default         corrected;
}

fluxRequired
{
    default         no;
    Exner;
}


// ************************************************************************* //
