/*---------------------------------------------------------------------------*\
| =========                 |                                                 |
| \\      /  F ield         | OpenFOAM: The Open Source CFD Toolbox           |
|  \\    /   O peration     | Version:  1.4                                   |
|   \\  /    A nd           | Web:      http://www.openfoam.org               |
|    \\/     M anipulation  |                                                 |
\*---------------------------------------------------------------------------*/

FoamFile
{
    version         2.0;
    format          ascii;

    root            "";
    case            "";
    instance        "";
    local           "";

    class           dictionary;
    object          transferProperties;
}

// * * * * * * * * * * * * * * * * * * * * * * * * * * * * * * * * * * * * * //

noTransfers false;
// Transfer between partitions based on divergence
divTransfer 1;
// Transfer between partitions based on dwdz
dwdzTransfer 0;
// Transfer w=0 if sigma=1
wTransfer0  true;
wPrimeCoeff 2;
// Transfer to keep w[0] > 1 when sigma[0] >0
wTransfer  0.2;
// Mininum allowable sigma in any fluid
minSigma  0;
// Transfer buoyancy anomalies based on constant factor times mean buoyancy
bAnomalyMeanCoeff 1;

// ************************************************************************* //
