/*---------------------------------------------------------------------------*\
| =========                 |                                                 |
| \\      /  F ield         | OpenFOAM: The Open Source CFD Toolbox           |
|  \\    /   O peration     | Version:  1.4                                   |
|   \\  /    A nd           | Web:      http://www.openfoam.org               |
|    \\/     M anipulation  |                                                 |
\*---------------------------------------------------------------------------*/

FoamFile
{
    version         2.0;
    format          ascii;

    root            "";
    case            "";
    instance        "";
    local           "";

    class           dictionary;
    object          transferProperties;
}

// * * * * * * * * * * * * * * * * * * * * * * * * * * * * * * * * * * * * * //

fluids 3 (stable up down);
transferType divBtransfer;
transferScale 1;
minSigma  3(0.5 0 0);

wTransfer0 0;
bAnomalyMeanCoeff 1;

cloudRadius     cloudRadius [0 1 0 0 0] 0;
dragCoeff 0;

Ksigma Ksigma [0 2 -1 0 0] 0;

gamma    gamma    [0 2 -1 0 0] 2e3;

// ************************************************************************* //
