/*--------------------------------*- C++ -*----------------------------------*\
| =========                 |                                                 |
| \\      /  F ield         | OpenFOAM: The Open Source CFD Toolbox           |
|  \\    /   O peration     | Version:  dev                                   |
|   \\  /    A nd           | Web:      www.OpenFOAM.org                      |
|    \\/     M anipulation  |                                                 |
\*---------------------------------------------------------------------------*/
FoamFile
{
    version     2.0;
    format      ascii;
    class       dictionary;
    object      blockMeshDict;
}
// * * * * * * * * * * * * * * * * * * * * * * * * * * * * * * * * * * * * * //

convertToMeters 1;

vertices
(
    (0    0    0)
    (1000 0    0)
    (1000 1000 0)
    (0    1000 0)
    (0    0    400)
    (1000 0    400)
    (1000 1000 400)
    (0    1000 400)
);

blocks
(
    hex (0 1 2 3 4 5 6 7) (1 1 64) simpleGrading (1 1 1)
);

edges
(
);

boundary
(
    ground
    {
        type wall;
        faces
        (
            (0 3 2 1)
        );
    }
    top
    {
        type wall;
        faces
        (
            (4 5 6 7)
        );
    }
    inlet
    {
        type cyclic;
        neighbourPatch outlet;
        faces
        (
            (0 4 7 3)
        );
    }
    outlet
    {
        type cyclic;
        neighbourPatch inlet;
        faces
        (
            (2 6 5 1)
        );
    }
    front
    {
        type patch;
        faces
        (
            (0 1 5 4)
        );
    }
    back
    {
        type patch;
        faces
        (
            (3 7 6 2)
        );
    }
);

mergePatchPairs
(
);

// ************************************************************************* //
