FoamFile
{
    version         1.4;
    format          ascii;

    root            "/export/lime/data-04/sws02hs/OpenFOAM/sws02hs-1.4.1/run/shallowWater";
    case            "bucky4_30";
    instance        "constant";
    local           "";

    class           dictionary;
    object          gmtDict;
}

// How to plot
projection "Q0/18c";
projection2D latLon;
plotBoundaryDots false;

FieldsToPlot
(
    [CoV filledContours 0 1.6 0.2 "$GMTU/colours/white_blue_red.cpt"]
    [Cofv colouredContours 0 1.6 0.2 "$GMTU/colours/white_blue_red.cpt"]
    [Cof  contours 0 2.6 0.2 "black"]
);

// options
region "5/350/-90/90";
boundaryMarks "a30/a30";
separateLegend true;
//annotate "minMax 180 -105";

