/*---------------------------------------------------------------------------*\
| =========                 |                                                 |
| \\      /  F ield         | OpenFOAM: The Open Source CFD Toolbox           |
|  \\    /   O peration     | Version:  1.4                                   |
|   \\  /    A nd           | Web:      http://www.openfoam.org               |
|    \\/     M anipulation  |                                                 |
\*---------------------------------------------------------------------------*/

FoamFile
{
    version         2.0;
    format          ascii;

    root            "";
    case            "";
    instance        "";
    local           "";

    class           dictionary;
    object          controlDict;
}

// * * * * * * * * * * * * * * * * * * * * * * * * * * * * * * * * * * * * * //

application     shallowWaterOTFoam;

startFrom       latestTime;

startTime       0;

stopAt          endTime;

endTime         86400;

deltaT          60;

writeControl    runTime;

writeInterval   3600;

purgeWrite      0;

writeFormat     binary;

writePrecision  6;

writeCompression off;

timeFormat      general;

timePrecision   8;

runTimeModifiable no;

adjustTimeStep no;
maxCo          0.5;

libs            ("libshallowWater.so" "libfiniteVolumeAtmosFOAMtools.so" "libmonitorFunction.so");

// ************************************************************************* //
