/*--------------------------------*- C++ -*----------------------------------*\
| =========                 |                                                 |
| \\      /  F ield         | OpenFOAM: The Open Source CFD Toolbox           |
|  \\    /   O peration     | Version:  dev                                   |
|   \\  /    A nd           | Web:      www.OpenFOAM.org                      |
|    \\/     M anipulation  |                                                 |
\*---------------------------------------------------------------------------*/
FoamFile
{
    version     2.0;
    format      ascii;
    class       dictionary;
    location    "system";
    object      topoSetDict.1;
}
// * * * * * * * * * * * * * * * * * * * * * * * * * * * * * * * * * * * * * //

actions
(
    {
        name    nearGround;
        type    cellSet;
        action  new;
        source  boxToCell;
        sourceInfo
        {
            box (-1000e3 -1000e3 0) (1000e3 1000e3 1e3);
        }
    }

    {
        name    vSlice;
        type    cellSet;
        action  new;
        source  boxToCell;
        sourceInfo
        {
            box (-1000e3 0 0) (1000e3 20e3 10e3);
        }
    }

);

// ************************************************************************* //
