/*--------------------------------*- C++ -*----------------------------------*\
  =========                 |
  \\      /  F ield         | OpenFOAM: The Open Source CFD Toolbox
   \\    /   O peration     | Website:  https://openfoam.org
    \\  /    A nd           | Version:  10
     \\/     M anipulation  |
\*---------------------------------------------------------------------------*/
FoamFile
{
    format      ascii;
    class       dictionary;
    object      decomposeParDict;
}
// * * * * * * * * * * * * * * * * * * * * * * * * * * * * * * * * * * * * * //

numberOfSubdomains  4;

/*
    Main methods are:
    1) Geometric: "simple"; "hierarchical", with ordered sorting, e.g. xyz, yxz
    2) Scotch: "scotch", when running in serial; "ptscotch", running in parallel
*/

method              simple;

simpleCoeffs
{
    n               (2 1 2); // total must match numberOfSubdomains
}


// ************************************************************************* //
