/*---------------------------------------------------------------------------*\
| =========                 |                                                 |
| \\      /  F ield         | OpenFOAM: The Open Source CFD Toolbox           |
|  \\    /   O peration     | Version:  1.4                                   |
|   \\  /    A nd           | Web:      http://www.openfoam.org               |
|    \\/     M anipulation  |                                                 |
\*---------------------------------------------------------------------------*/

FoamFile
{
    version         2.0;
    format          ascii;

    root            "";
    case            "";
    instance        "";
    local           "";

    class           dictionary;
    object          fvSchemes;
}

// * * * * * * * * * * * * * * * * * * * * * * * * * * * * * * * * * * * * * //

ddtSchemes
{
    default Euler;
}
//offCentre 0.5;

gradSchemes
{
    default         none;
    grad((theta.sum|rho.sum)) Gauss linear;
    grad(sigma.stable)        Gauss upwind volFlux.stable;
    grad(sigma.buoyant)       Gauss upwind volFlux.buoyant;
    linearUpwind              Gauss linear;
}

divSchemes
{
    default none;
    theta Gauss linearUpwind linearUpwind;
    u Gauss linearUpwind linearUpwind;
}

laplacianSchemes
{
    default         Gauss linear uncorrected;
}

interpolationSchemes
{
    default        none;
    // For initialisation
    interpolate(theta) linear;
    
    // for multiFluidFoam_TwoPressures
    sigmaRho        linear;
    theta           linear;
    convection      linear;
    Uf              linear;
}

snGradSchemes
{
    default         uncorrected;
}

fluxRequired
{
    default         no;
    Exner;
}


// ************************************************************************* //
