FoamFile
{
    version         2.3;
    format          ascii;

    root            "";
    case            "";
    instance        "constant";
    local           "";

    class           dictionary;
    object          gmtDict;
}

// How to plot
// Compulsory inputs
projection "X40c/2c";
projection2D XZ;

FieldsToPlot
(
    [b filledContours -0.0405 0.0405 0.001 "$GMTU/colours/red_white_blue.cpt"]
//    [u vectors 1000 7 "black"]
);

separateLegend true;
//region "0/10/-0.1/1.1";
plotBoundaryDots false;
annotate "minMax 3 1.3";
