FoamFile
{
    version         2.3;
    format          ascii;

    root            "";
    case            "";
    instance        "constant";
    local           "";

    class           dictionary;
    object          gmtDict;
}

// How to plot
// Compulsory inputs
projection "X60c/10c";
projection2D XZ;

FieldsToPlot
(
//    [sigma.stable filledContours 0 1 0.1 "$GMTU/colours/white_grey.cpt"]

    [b.air filledContours -0.495 0.495 0.05 "$GMTU/colours/red_white_blue.cpt"]

    [u.air vectors 0.1 7 "black"]
    [sigma.up   contours 0.5 1.5 1 "2,red"]
    [sigma.down contours 0.5 1.5 1 "2,blue"]
);

separateLegend true;
region "-4/4/0/1";
plotBoundaryDots false;
//annotate "minMax -0.5 -0.01";
