/*--------------------------------*- C++ -*----------------------------------*\
| =========                 |                                                 |
| \\      /  F ield         | OpenFOAM: The Open Source CFD Toolbox           |
|  \\    /   O peration     | Version:  dev                                   |
|   \\  /    A nd           | Web:      www.OpenFOAM.org                      |
|    \\/     M anipulation  |                                                 |
\*---------------------------------------------------------------------------*/
FoamFile
{
    version     2.0;
    format      ascii;
    class       dictionary;
    object      horizontalMeanDict;
}
// * * * * * * * * * * * * * * * * * * * * * * * * * * * * * * * * * * * * * //

levelInterfaces 21(0 500 1000 1500 2000 2500 3000 3500 4000 4500 5000 5500
                   6000 6500 7000 7500 8000 8500 9000 9500 10000);
fieldNamesAndDensities 3
(
    (b none)
    (uz none)
    (P none)
);

// ************************************************************************* //
