/*---------------------------------------------------------------------------*\
| =========                 |                                                 |
| \\      /  F ield         | OpenFOAM: The Open Source CFD Toolbox           |
|  \\    /   O peration     | Version:  1.4                                   |
|   \\  /    A nd           | Web:      http://www.openfoam.org               |
|    \\/     M anipulation  |                                                 |
\*---------------------------------------------------------------------------*/

FoamFile
{
    version         2.0;
    format          ascii;

    root            "";
    case            "";
    instance        "";
    local           "";

    class           dictionary;
    object          fvSchemes;
}

// * * * * * * * * * * * * * * * * * * * * * * * * * * * * * * * * * * * * * //

CoLimit 1;

ddtSchemes
{
    default CrankNicolson 1;
}

gradSchemes
{
    default         Gauss linear;
}

divSchemes
{
    default        none;
    implicit       Gauss linearUpwind linearUpwind;
    explicit       Gauss linearUpwind linearUpwind;
}

laplacianSchemes
{
    default         none;
}

interpolationSchemes
{
    default        linear;
}

snGradSchemes
{
    default         uncorrected;
}


// ************************************************************************* //
