FoamFile
{
    version         1.4;
    format          ascii;

    root            "/export/lime/data-04/sws02hs/OpenFOAM/sws02hs-1.4.1/run/shallowWater";
    case            "bucky4_30";
    instance        "constant";
    local           "";

    class           dictionary;
    object          gmtDict;
}

// How to plot
projection "Q0/18c";
projection2D latLon;
plotBoundaryDots false;

FieldsToPlot
(
    [offCentre rawValues 0 1 0.1 "$GMTU/colours/white_blue_red.cpt"]
);

// options
region "5/355/-90/90";
boundaryMarks "a30/a30";
separateLegend false;
annotate "minMax 180 -105";
plotZeroValuePolys false;
