FoamFile
{
    version         1.4;
    format          ascii;

    root            "/export/lime/data-04/sws02hs/OpenFOAM/sws02hs-1.4.1/run/shallowWater";
    case            "bucky4_30";
    instance        "constant";
    local           "";

    class           dictionary;
    object          gmtDict;
}

// How to plot
projection "Q180/18c";
projection2D latLon;
plotBoundaryDots false;

FieldsToPlot
(
    [T filledContours -0.025 1.025 0.05 "$GMTU/colours/wh-bl-gr-ye-re.cpt"]
//    [T filledContours -0.05 1.05 0.05 "$GMTU/colours/wh-bl-gr-ye-re.cpt"]
);

// options
region "5/350/-85/85";
boundaryMarks "a60/a60";
separateLegend true;
annotate "minMax 180 -105";

