FoamFile
{
    version         1.4;
    format          ascii;

    root            "/export/lime/data-04/sws02hs/OpenFOAM/sws02hs-1.4.1/run/shallowWater";
    case            "bucky4_30";
    instance        "constant";
    local           "";

    class           dictionary;
    object          gmtDict;
}

// How to plot
projection "Q180/18c";
projection2D latLon;
plotBoundaryDots false;

FieldsToPlot
(
    [T rawValues 0 0.5 0.005 "$GMTU/colours/wh-bl-gr-ye-re.cpt"]
    //[T rawValues -5.025e-5 5.0251e-5 5e-6 "$GMTU/colours/red_white_blue.cpt"]
    [anteDV   vectors 20.1 1 "black"]
//    [anteDVe  vectors 10.1 1 "black"]
//    [anteDVi  vectors 10.1 1 "black"]
//    [anteDeCo contours 0 1 0.1 "black"]
//    [offCentreC contours 0 1 0.1 "black"]
);

// options
region "5/350/-85/85";
//region "270/340/-60/-20";
boundaryMarks "a60/a60";
separateLegend true;
annotate "minMax 180 -105";

