FoamFile
{
    version         1.4;
    format          ascii;

    root            "/export/lime/data-04/sws02hs/OpenFOAM/sws02hs-1.4.1/run/shallowWater";
    case            "bucky4_30";
    instance        "constant";
    local           "";

    class           dictionary;
    object          gmtDict;
}

// How to plot
projection "Q180/12c";
projection2D latLon;
plotBoundaryDots false;

FieldsToPlot
(
    [X filledContours 0 4e-6 .5e-6 "$GMTU/colours/wh-bl-gr-ye-re.cpt"]
    [Co colouredContours 0.8 2 0.2 "$GMTU/colours/pink_purple.cpt"]
    [Co contours 3 50 1 "0.5,purple,1_2:0"]
);

// options
region "0/360/-90/90";
boundaryMarks "a60/a60";
separateLegend true;
annotate "minMax 60 -115";
lonMin 360;
//lonMax 180;
