/*---------------------------------------------------------------------------*\
| =========                 |                                                 |
| \\      /  F ield         | OpenFOAM: The Open Source CFD Toolbox           |
|  \\    /   O peration     | Version:  1.4                                   |
|   \\  /    A nd           | Web:      http://www.openfoam.org               |
|    \\/     M anipulation  |                                                 |
\*---------------------------------------------------------------------------*/

FoamFile
{
    version         2.0;
    format          ascii;

    root            "";
    case            "";
    instance        "";
    local           "";

    class           dictionary;
    object          transferProperties;
}

// * * * * * * * * * * * * * * * * * * * * * * * * * * * * * * * * * * * * * //

fluids 2 (down up);
transferType divBtransfer;
transferScale 1;
minSigma  2(0 0);

wTransfer0 2;
bAnomalyMeanCoeff 0;

cloudRadius     cloudRadius [0 1 0 0 0] 0;
dragCoeff 0;

Ksigma Ksigma [0 2 -1 0 0] 0;

gamma    gamma    [0 2 -1 0 0] 1e3;

// ************************************************************************* //
