/*---------------------------------------------------------------------------*\
| =========                 |                                                 |
| \\      /  F ield         | OpenFOAM: The Open Source CFD Toolbox           |
|  \\    /   O peration     | Version:  1.4                                   |
|   \\  /    A nd           | Web:      http://www.openfoam.org               |
|    \\/     M anipulation  |                                                 |
\*---------------------------------------------------------------------------*/

FoamFile
{
    version         2.0;
    format          ascii;

    root            "";
    case            "";
    instance        "";
    local           "";

    class           dictionary;
    object          blockMeshDict;
}

// * * * * * * * * * * * * * * * * * * * * * * * * * * * * * * * * * * * * * //

convertToMeters 1000;

vertices
(
    (-10.1 1  0)         // 0
    ( 10.1 1  0)         // 1
    ( 10.1 1  10)        // 2
    (-10.1 1  10)        // 3
    (-10.1 0  0)         // 4
    ( 10.1 0  0)         // 5
    ( 10.1 0  10)        // 6
    (-10.1 0  10)        // 7
);

blocks
(
    hex (0 1 2 3 4 5 6 7) (10 40 1) 
    simpleGrading
    (
        1
        (
            (0.2 0.3 4) // 20% y-dir, 30% cells, expansion = 4
            (0.6 0.4 1) // 60% y-dir, 40% cells, expansion = 1
            (0.2 0.3 0.25) // 20% y-dir, 30% cells, expansion = 0.25 (1/4)
        )
        1
    )
);

edges
(
);

boundary
(
    ground
    {
        type wall;
        faces
        (
            (1 5 4 0)
        );
    }
    top
    {
        type wall;
        faces
        (
            (3 7 6 2)
        );
    }
    left
    {
        type cyclic;
        neighbourPatch right;
        faces
        (
            (0 4 7 3)
        );
    }
    right
    {
        type cyclic;
        neighbourPatch left;
        faces
        (
            (1 5 6 2)
        );
    }
    frontAndBack
    {
        type empty;
        faces
        (
            (0 3 2 1)
            (4 5 6 7)
        );
    }
);

mergePatchPairs
(
);

// ************************************************************************* //
