/*---------------------------------------------------------------------------*\
| =========                 |                                                 |
| \\      /  F ield         | OpenFOAM: The Open Source CFD Toolbox           |
|  \\    /   O peration     | Version:  1.4                                   |
|   \\  /    A nd           | Web:      http://www.openfoam.org               |
|    \\/     M anipulation  |                                                 |
\*---------------------------------------------------------------------------*/

FoamFile
{
    version         2.0;
    format          ascii;

    root            "";
    case            "";
    instance        "";
    local           "";

    class           dictionary;
    object          controlDict;
}

// * * * * * * * * * * * * * * * * * * * * * * * * * * * * * * * * * * * * * //

application     multiFluidBoussinesqFoam;

startFrom       latestTime;

startTime       0;

stopAt          endTime;

// Simulation with Ra = 1e5
// H = 1e4, nu alpha = 7.07e3 => DeltaB = 1e5*7.07e3/1e12 = 7.07e-4
// Eddy turnover time Te = 4 sqrt(H/deltaB) ~ 15075
// End time = 38 Te  ~ 500,000
// Time step = 1.598e-3*Te ~ 24

endTime         5e5;

deltaT          25;

writeControl    runTime;

writeInterval   1e4;

purgeWrite      0;

writeFormat     ascii;

writePrecision  6;

writeCompression uncompressed;

timeFormat      general;

timePrecision   6;

runTimeModifiable no;

adjustTimeStep no;
maxCo          0.5;

libs
(
    "libExnerTheta.so"
);


// ************************************************************************* //
