FoamFile {
        version         1.4;
        format          ascii;

        root            "";
        case            "";
        instance        "constant";
        local           "";

        class           dictionary;
        object          gmtDict;
}

projection "X18c/18c";
projection2D XY;
separateLegend false;
plotBoundaryDots false;

FieldsToPlot
(
    [T contours 0.25 4 0.25 "black"]
    [U vectors 0.9 13 "black"]
);

//region "0e3/450e3/0/30e3";
//boundaryMarks "100e3/10e3WSen";
