FoamFile {
        version         1.4;
        format          ascii;

        root            "";
        case            "";
        instance        "constant";
        local           "";

        class           dictionary;
        object          gmtDict;
}

projection "X18c/18c";
projection2D XY;
separateLegend false;
plotBoundaryDots false;

FieldsToPlot
(
    [Terror filledContours -0.41 0.41 0.02 "$GMTU/colours/red_white_blue.cpt"]
    [T contours 0.25 4 0.25 "black"]
    [anteDVe vectors 2 7 "black"]
    [anteDVi vectors 2 7 "black"]
);

//region "0e3/450e3/0/30e3";
//boundaryMarks "100e3/10e3WSen";
separateLegend true;
