/*--------------------------------*- C++ -*----------------------------------*\
| =========                 |                                                 |
| \\      /  F ield         | OpenFOAM: The Open Source CFD Toolbox           |
|  \\    /   O peration     | Version:  2.3.0                                 |
|   \\  /    A nd           | Web:      www.OpenFOAM.org                      |
|    \\/     M anipulation  |                                                 |
\*---------------------------------------------------------------------------*/
FoamFile
{
    version     2.0;
    format      ascii;
    class       dictionary;
    location    "constant";
    object      transportProperties;
}
// * * * * * * * * * * * * * * * * * * * * * * * * * * * * * * * * * * * * * //

Ubar            Ubar [ 0 1 -1 0 0 0 0 ] (0 0 0);
gradP           gradP [0 1 -2 0 0] (1 0 0);

transportModel  Newtonian;

// nu calcluated as u* delta/Re_tau where u*=1, delta=1
// Re_tau = 180
nu              nu [ 0 2 -1 0 0 0 0 ] 0.0055555556;


// ************************************************************************* //
