/*---------------------------------------------------------------------------*\
| =========                 |                                                 |
| \\      /  F ield         | OpenFOAM: The Open Source CFD Toolbox           |
|  \\    /   O peration     | Version:  1.4                                   |
|   \\  /    A nd           | Web:      http://www.openfoam.org               |
|    \\/     M anipulation  |                                                 |
\*---------------------------------------------------------------------------*/

FoamFile
{
    version         2.0;
    format          ascii;

    root            "";
    case            "";
    instance        "";
    local           "";

    class           dictionary;
    object          transferProperties;
}

// * * * * * * * * * * * * * * * * * * * * * * * * * * * * * * * * * * * * * //

noTransfers false;
cloudRadiusMax     cloudRadiusMax [0 1 0 0 0] 2000;
cloudRadiusMin     cloudRadiusMin [0 1 0 0 0] 2000;
dragCoeff       0;
Ksigma Ksigma [0 2 -1 0 0] 0;
minSigma  1e-9;
// Transfer between partitions based on horizontal divergence
divTransfer 0;
noAnomalies false;
wTransfer true;
wTransferTimeScale wTransferTimeScale [0 0 1 0 0] 10;
wPrime wPrime [0 1 -1 0 0] 1;
btMax btMax [0 1 -2 0 0] 1;
buoyancyTransfer false;
bTransferDiffusivity bTransferDiffusivity [0 2 -1 0 0] 0;
sharedDiffusion false;
uniformSigma false;

// ************************************************************************* //
