/*--------------------------------*- C++ -*----------------------------------*\
| =========                 |                                                 |
| \\      /  F ield         | OpenFOAM: The Open Source CFD Toolbox           |
|  \\    /   O peration     | Version:  dev                                   |
|   \\  /    A nd           | Web:      www.OpenFOAM.org                      |
|    \\/     M anipulation  |                                                 |
\*---------------------------------------------------------------------------*/
FoamFile
{
    version     2.0;
    format      ascii;
    class       dictionary;
    object      setFieldsDict;
}
// * * * * * * * * * * * * * * * * * * * * * * * * * * * * * * * * * * * * * //

regions
(
    // A buoyancy perturbations near the ground and near the top
    boxToCell
    {
        box (-2e3 0 0) (-1e3 1000 2000);
        fieldValues
        (
            volScalarFieldValue b.air 1e-2
        );
    }
    boxToCell
    {
        box (1e3 0 8e3) (2e3 1000 10e3);
        fieldValues
        (
            volScalarFieldValue b.air -1e-2
        );
    }
);

// ************************************************************************* //
