/*--------------------------------*- C++ -*----------------------------------*\
| =========                 |                                                 |
| \\      /  F ield         | OpenFOAM: The Open Source CFD Toolbox           |
|  \\    /   O peration     | Version:  dev                                   |
|   \\  /    A nd           | Web:      www.OpenFOAM.org                      |
|    \\/     M anipulation  |                                                 |
\*---------------------------------------------------------------------------*/
FoamFile
{
    version     2.0;
    format      ascii;
    class       dictionary;
    location    "constant";
    object      transportProperties;
}
// * * * * * * * * * * * * * * * * * * * * * * * * * * * * * * * * * * * * * //


transportModel  Newtonian;

nu              nu [ 0 2 -1 0 0 0 0 ] 1.3613e-5;
geostrophicWind (8 0 0);
Coriolisf           Coriolisf [0 0 -1 0 0] (0 0 1.39e-4); 
Prandtlt 1;
Prandtl  0.7;
