/*---------------------------------------------------------------------------*\| =========                 |                                                 |
| \\      /  F ield         | OpenFOAM: The Open Source CFD Toolbox           |
|  \\    /   O peration     | Version:  1.4                                   |
|   \\  /    A nd           | Web:      http://www.openfoam.org               |
|    \\/     M anipulation  |                                                 |
\*---------------------------------------------------------------------------*/

FoamFile
{
    version         2.0;
    format          ascii;

    root            "";
    case            "";
    instance        "";
    local           "";

    class           dictionary;
    object          transferProperties;
}

// * * * * * * * * * * * * * * * * * * * * * * * * * * * * * * * * * * * * * //

fluids 2 (down up);

transferType dwdzTransfer; // Could be divTransfer, dwdzTransfer, pressureTransfer,
                      //  special or noTransfer or diffusionOnly
transferScale 1;
wTransferScale 2;
bTransferScale 0;

minSigma  2(0 0);

gamma    gamma    [0 2 -1 0 0] 1e3;

cloudRadius     cloudRadius [0 1 0 0 0] 0;
dragCoeff 0;

// ************************************************************************* //
