/*--------------------------------*- C++ -*----------------------------------*\
| =========                 |                                                 |
| \\      /  F ield         | OpenFOAM: The Open Source CFD Toolbox           |
|  \\    /   O peration     | Version:  2.3.0                                 |
|   \\  /    A nd           | Web:      www.OpenFOAM.org                      |
|    \\/     M anipulation  |                                                 |
\*---------------------------------------------------------------------------*/
FoamFile
{
    version     2.0;
    format      ascii;
    class       dictionary;
    location    "constant";
    object      RASProperties;
}
// * * * * * * * * * * * * * * * * * * * * * * * * * * * * * * * * * * * * * //

simulationType RAS;

RAS
{
    RASModel        kOmega;
    turbulence      on;
    printCoeffs     on;

    kOmegaCoeffs
    {
        betaStar    0.09;
        beta        0.075;
        gamma       0.5556;
        alphaK      0.5;
        alphaOmega  0.5;
    }
    kOmegaSSTCoeffs
    {
        alphaK1         0.85;
        alphaK2         1;
        alphaOmega1     0.5;
        alphaOmega2     0.856;
        gamma1          0.555556;
        gamma2          0.44;
        beta1           0.075;
        beta2           0.0828;
        betaStar        0.09;
        a1              0.31;
        b1              1;
        c1              10;
        F3              false;
    }

}



// ************************************************************************* //
