/*---------------------------------------------------------------------------*\
| =========                 |                                                 |
| \\      /  F ield         | OpenFOAM: The Open Source CFD Toolbox           |
|  \\    /   O peration     | Version:  1.4                                   |
|   \\  /    A nd           | Web:      http://www.openfoam.org               |
|    \\/     M anipulation  |                                                 |
\*---------------------------------------------------------------------------*/

FoamFile
{
    version         2.0;
    format          ascii;

    root            "";
    case            "";
    instance        "";
    local           "";

    class           dictionary;
    object          blockMeshDict;
}

// * * * * * * * * * * * * * * * * * * * * * * * * * * * * * * * * * * * * * //

convertToMeters 1000;

vertices
(
    (-10 1  0)
    ( 120 1  0)
    ( 120 1 15)
    (-10 1 15)
    (-10 0  0)
    ( 120 0  0)
    ( 120 0 15)
    (-10 0 15)
);

blocks
(
    hex (0 1 2 3 4 5 6 7) (520 60 1) simpleGrading (1 6 1)
);

edges
(
);

patches
(
    wall ground
    (
        (1 5 4 0)
    )
    wall top
    (
        (3 7 6 2)
    )
    wall inlet
    (
        (0 4 7 3)
    )
	wall outlet
    (
        (2 6 5 1)
    )
	// empty frontAndBack
    // (
    //     (0 3 2 1)
    //     (4 5 6 7)
    // )
);

mergePatchPairs
(
);

// ************************************************************************* //
