FoamFile {
        version         1.4;
        format          ascii;

        root            "";
        case            "";
        instance        "constant";
        local           "";

        class           dictionary;
        object          gmtDict;
}

projection "X18c/18c";
projection2D XY;
plotBoundaryDots false;

FieldsToPlot
(
    [T contours 0.05  1.05   0.1 "1,black"]
    [T0 contours 0.05 1.05 0.1 "1,black,5_5:0"]
);

//region "0e3/450e3/0/30e3";
//boundaryMarks "100e3/10e3WSen";
//separateLegend false;
