/*--------------------------------*- C++ -*----------------------------------*\
  =========                 |
  \\      /  F ield         | OpenFOAM: The Open Source CFD Toolbox
   \\    /   O peration     | Website:  https://openfoam.org
    \\  /    A nd           | Version:  dev
     \\/     M anipulation  |
\*---------------------------------------------------------------------------*/
FoamFile
{
    version     2.0;
    format      ascii;
    class       dictionary;
    location    "system";
    object      fvSchemes;
}
// * * * * * * * * * * * * * * * * * * * * * * * * * * * * * * * * * * * * * //

CoLimit 1.3;

ddtSchemes
{
    butcherTableau 4 4 ((0 0 0 0) (0.5 0.5 0 0) (0.25 0 0.25 0)
                (0.1666666666666667 0.1666666666666667 0.666666666666667 0))
                4 (0 0 0 0)
                4 (0 1 0.5 1);
    /*butcherTableau 4 4 ((0 0 0 0) (1 0 0 0) (0.25 0.25 0 0)
                (0.1666666666666667 0.1666666666666667 0.666666666666667 0))
                4 (0 0 0 0)
                4 (0 1 0.5 1);*/
    /*butcherTableau 3 3 ((0 0 0) (1 0 0) (0.25 0.25 0))
                3 (0.1666666666666667 0.1666666666666667 0.666666666666667)
                3 (0 1 0.5);*/
    /*butcherTableau 3 3 ((0 0 0) (0 1 0)
                       (0.1666666666666667 -0.33333333333333 0.666666666666667))
                3 (0.1666666666666667 0.1666666666666667 0.666666666666667)
                3 (0 1 0.5);*/
}

gradSchemes
{
    default         none;
}

divSchemes
{
    default         Gauss cubicUpwind -1 -1 none;
}

laplacianSchemes
{
    default         none;
}

interpolationSchemes
{
    default         none;
}

snGradSchemes
{
    default         none;
}

fluxRequired
{
    T;
}


// ************************************************************************* //
