FoamFile
{
    version         2.3;
    format          ascii;

    root            "";
    case            "";
    instance        "constant";
    local           "";

    class           dictionary;
    object          gmtDict;
}

// How to plot
// Compulsory inputs
projection "X30.3c/15c";
projection2D XZ;

FieldsToPlot
(
    [b filledContours -0.525 0.525 0.05 "$GMTU/colours/red_white_blue.cpt"]
    [uz contours 0.05 1.05 0.1 "black"]
    [uz contours -1.05 -0.05 0.1 "black,5_5:,"]
);

separateLegend true;
region "-1.01/1.01/0/1";
plotBoundaryDots false;
annotate "minMax -1 -0.01";
