/*--------------------------------*- C++ -*----------------------------------*\
| =========                 |                                                 |
| \\      /  F ield         | OpenFOAM: The Open Source CFD Toolbox           |
|  \\    /   O peration     | Version:  dev                                   |
|   \\  /    A nd           | Web:      www.OpenFOAM.org                      |
|    \\/     M anipulation  |                                                 |
\*---------------------------------------------------------------------------*/
FoamFile
{
    version     2.0;
    format      ascii;
    class       volScalarField;
    object      p_rgh;
}
// * * * * * * * * * * * * * * * * * * * * * * * * * * * * * * * * * * * * * //

dimensions      [0 0 0 0 0 0 0];

internalField   uniform 1;

boundaryField
{
    ground
    {
        type            fixedFluxBuoyantExner;
        value           uniform 1;
        gradient        uniform 0;
    }

    top
    {
        type            fixedValue;
        value           uniform 0.984879345952;
    }

    inlet
    {
        type            cyclic;
        value           uniform 1e5;
    }

    outlet
    {
        type            cyclic;
        value           uniform 1e5;
    }
    front
    {
        type           geostrophic_Exner;
        geostrophicVelocity     (8 0 0);
        Omega       (0 0 6.95e-5); // Rotation of the geometry
        gradient    uniform 0;
    }
    back
    {
        type           geostrophic_Exner;
        geostrophicVelocity     (8 0 0);
        Omega       (0 0 6.95e-5); // Rotation of the geometry
        gradient    uniform 0;
    }
}

// ************************************************************************* //
