/*---------------------------------------------------------------------------*\
| =========                 |                                                 |
| \\      /  F ield         | OpenFOAM: The Open Source CFD Toolbox           |
|  \\    /   O peration     | Version:  1.4                                   |
|   \\  /    A nd           | Web:      http://www.openfoam.org               |
|    \\/     M anipulation  |                                                 |
\*---------------------------------------------------------------------------*/

FoamFile
{
    version         2.0;
    format          ascii;

    root            "";
    case            "";
    instance        "";
    local           "";

    class           dictionary;
    object          transferProperties;
}

// * * * * * * * * * * * * * * * * * * * * * * * * * * * * * * * * * * * * * //

minSigma  0.1;
cloudRadiusMax     cloudRadiusMax [0 1 0 0 0] 1e3;
cloudRadiusMin     cloudRadiusMin [0 1 0 0 0] 1e3;
dragCoeff       0;
noTransfers false;
noAnomalies false;
Ksigma Ksigma [0 2 -1 0 0] 0;
// Transfer between partitions based on horizontal divergence
divTransfer 1;
wTransfer true;
wTransferTimeScale wTransferTimeScale [0 0 1 0 0] 1000;

transferAnomaliesMeanFactor true;
bAnomalyMeanCoeff .1;

buoyancyTransfer false;
bTransferDiffusivity bTransferDiffusivity [0 1 1 0 0] 0;
uniformSigma false;
transferAnomaliesLaplacian false;
transferAnomaliesb0 false;
transferZeroAnomalies false;

// ************************************************************************* //
