/*--------------------------------*- C++ -*----------------------------------*\
| =========                 |                                                 |
| \\      /  F ield         | OpenFOAM: The Open Source CFD Toolbox           |
|  \\    /   O peration     | Version:  1.5                                   |
|   \\  /    A nd           | Web:      http://www.OpenFOAM.org               |
|    \\/     M anipulation  |                                                 |
\*---------------------------------------------------------------------------*/
FoamFile
{
    version     2.0;
    format      ascii;
    class       dictionary;
    object      fvSolution;
}
// * * * * * * * * * * * * * * * * * * * * * * * * * * * * * * * * * * * * * //

solvers
{
    P
    {
        solver PCG;
        preconditioner DIC;
        tolerance        1e-10;
        relTol           0;
    }

    tracer
    {
        solver PBiCG;
        preconditioner DILU;
        tolerance        1e-6;
        relTol           0;
    }
}
pRefCell -1;

iterations
{
    nOuterCorrectors 3;
    nCorrectors      2;
    nNonOrthogonalCorrectors 1;
}


// ************************************************************************* //
