/*---------------------------------------------------------------------------*\
| =========                 |                                                 |
| \\      /  F ield         | OpenFOAM: The Open Source CFD Toolbox           |
|  \\    /   O peration     | Version:  1.4                                   |
|   \\  /    A nd           | Web:      http://www.openfoam.org               |
|    \\/     M anipulation  |                                                 |
\*---------------------------------------------------------------------------*/

FoamFile
{
    version         2.0;
    format          ascii;

    root            "";
    case            "";
    instance        "";
    local           "";

    class           dictionary;
    object          transferProperties;
}

// * * * * * * * * * * * * * * * * * * * * * * * * * * * * * * * * * * * * * //

fluids 1 (air);

noTransfers true;
cloudRadius     cloudRadius [0 1 0 0 0] 0;
dragCoeff 0;

Ksigma Ksigma [0 2 -1 0 0] 0;
minSigma  0;
wTransfer 0;
divTransfer 0;
bAnomalyMeanCoeff 0;

// ************************************************************************* //
