/*--------------------------------*- C++ -*----------------------------------*\
  =========                 |
  \\      /  F ield         | OpenFOAM: The Open Source CFD Toolbox
   \\    /   O peration     | Website:  https://openfoam.org
    \\  /    A nd           | Version:  10
     \\/     M anipulation  |
\*---------------------------------------------------------------------------*/
FoamFile
{
    format      ascii;
    class       surfaceVectorField;
    location    "constant";
    object      meshCV;
}
// * * * * * * * * * * * * * * * * * * * * * * * * * * * * * * * * * * * * * //

dimensions      [0 0 0 0 0 0 0];

internalField   nonuniform List<vector> 
370
(
(1.11022302463e-16 0 -0.0025872706858)
(-0.00205096119668 5.55724618095e-17 -4.20447045324e-06)
(0 0 -0.00367805684967)
(-0.00284978805825 5.55877231624e-17 -8.12189596611e-06)
(0 5.55122666842e-17 -0.00547236695948)
(-0.00411953028424 5.56095804487e-17 -1.69724647711e-05)
(0 -5.55131243361e-17 -0.00864336466438)
(-0.00625030511188 -5.56422426847e-17 -3.9064406949e-05)
(1.11022302463e-16 5.55152324655e-17 -0.014782782508)
(-0.0101286079594 5.56947340089e-17 -0.000102602798629)
(0 -5.55203380988e-17 -0.0282392689426)
(-0.0178784727527 -5.57878736283e-17 -0.000319667092818)
(0 0 -0.062912925828)
(-0.0356074091416 5.59815867706e-17 -0.00126869198772)
(0 0 -0.164543158807)
(-0.0833377835881 5.65184873284e-17 -0.00696953884147)
(0 0 -0.289265304766)
(-0.222824207388 0 -0.0509309290826)
(0 5.51625683258e-17 0)
(-0.304775336728 0 -0.097528107753)
(0 -1.66695766244e-16 0.289265304766)
(0.304775336728 -6.21437280832e-17 -0.097528107753)
(0 1.66767066593e-16 0.164543158807)
(0.222824207388 1.17612604728e-16 -0.0509309290826)
(0 -5.55362797157e-17 0.062912925828)
(0.0833377835881 -5.65184873284e-17 -0.00696953884147)
(0 0 0.0282392689426)
(0.0356074091416 5.59815867706e-17 -0.00126869198772)
(1.11022302463e-16 -1.11030464931e-16 0.014782782508)
(0.0178784727527 5.57878736283e-17 -0.000319667092818)
(0 1.66539373008e-16 0.00864336466438)
(0.0101286079594 1.11389468018e-16 -0.000102602798629)
(0 0 0.00547236695948)
(0.00625030511188 0 -3.9064406949e-05)
(0 -1.66535362819e-16 0.00367805684967)
(0.00411953028423 1.11219160897e-16 -1.69724647711e-05)
(1.11022302463e-16 0 0.0025872706858)
(0.00284978805825 1.11175446325e-16 -8.12189596611e-06)
(0.00205096119668 1.66717385428e-16 -4.20447045324e-06)
(1.11022302463e-16 0 -0.00231498310357)
(-0.00182916166643 0 -3.34736584939e-06)
(1.11022302463e-16 0 -0.00328996093704)
(-0.00253082739933 -5.55876224431e-17 -6.40299332033e-06)
(0 -5.55122189343e-17 -0.00489740324238)
(-0.0036599754863 -5.56093945848e-17 -1.33955102801e-05)
(0 5.55131962628e-17 -0.00773472163245)
(-0.00555907651478 0 -3.09084654223e-05)
(0 -5.55151107126e-17 -0.0132265466966)
(-0.00900047385497 0 -8.10042646944e-05)
(1.11022302463e-16 5.55204113896e-17 -0.0252658228789)
(-0.0158971482007 0 -0.000252764656391)
(0 0 -0.0562896284556)
(-0.0316541262283 -5.59741077562e-17 -0.00100248617765)
(0 -5.55889134248e-17 -0.147223821577)
(-0.0741263683936 -5.64772897421e-17 -0.00550981296269)
(0 0 -0.258816511456)
(-0.199110768127 5.84993332566e-17 -0.0404553258681)
(0 0 8.82600481534e-16)
(-0.273588738799 0 -0.077819580864)
(0 0 0.258816511456)
(0.273588738799 0 -0.077819580864)
(0 0 0.147223821577)
(0.199110768127 0 -0.0404553258681)
(0 5.55363502322e-17 0.0562896284556)
(0.0741263683936 0 -0.00550981296269)
(1.11022302463e-16 0 0.0252658228789)
(0.0316541262283 -5.59741077562e-17 -0.00100248617765)
(0 -5.55151107126e-17 0.0132265466966)
(0.0158971482007 0 -0.000252764656391)
(0 5.55131962628e-17 0.00773472163245)
(0.00900047385497 5.56942606054e-17 -8.10042646946e-05)
(0 1.11024437869e-16 0.00489740324238)
(0.00555907651478 -1.66926211031e-16 -3.09084654223e-05)
(1.11022302463e-16 -1.6653540177e-16 0.00328996093704)
(0.0036599754863 -1.66828183754e-16 -1.33955102801e-05)
(1.11022302463e-16 5.55116147381e-17 0.00231498310357)
(0.00253082739933 0 -6.40299332033e-06)
(0.00182916166644 -5.55725126422e-17 -3.34736584939e-06)
(0 -5.55115221056e-17 -0.00204498513117)
(-0.0015991628753 0 -2.55866060062e-06)
(0 0 -0.00290246609724)
(-0.00221999452949 0 -4.92838785537e-06)
(0 0 -0.00431991378302)
(-0.00319998361613 5.56093068454e-17 -1.02399475717e-05)
(0 5.55131034884e-17 -0.00682475433725)
(-0.00486078014974 5.5641867423e-17 -2.36233915279e-05)
(0 -5.55152036387e-17 -0.0116716586104)
(-0.00787891703455 -5.56937341789e-17 -6.20858662324e-05)
(0 0 -0.0222938088922)
(-0.0139086544855 0 -0.000193469383894)
(0 0 -0.0496651312833)
(-0.0277002161026 1.6790302247e-16 -0.000767572988204)
(0 5.55890088082e-17 -0.129902773719)
(-0.0649028768635 1.69322322905e-16 -0.0042212831112)
(0 -5.55652161202e-17 -0.228368691649)
(-0.175035479284 -5.82267370915e-17 -0.0311178075072)
(0 0 4.41301005369e-16)
(-0.241520756947 -1.21985908341e-16 -0.0601121011964)
(0 0 0.228368691649)
(0.241520756947 0 -0.0601121011964)
(0 0 0.129902773719)
(0.175035479284 0 -0.0311178075072)
(0 0 0.0496651312833)
(0.0649028768635 0 -0.0042212831112)
(0 5.55203650313e-17 0.0222938088922)
(0.0277002161026 0 -0.000767572988204)
(0 0 0.0116716586104)
(0.0139086544855 0 -0.000193469383894)
(0 -1.66539310465e-16 0.00682475433725)
(0.00787891703455 -5.56937341789e-17 -6.20858662324e-05)
(0 1.1102453064e-16 0.00431991378302)
(0.00486078014974 1.11283734846e-16 -2.36233915279e-05)
(0 0 0.00290246609724)
(0.00319998361612 0 -1.02399475717e-05)
(0 0 0.00204498513117)
(0.00221999452949 -1.11175441384e-16 -4.92838785537e-06)
(0.0015991628753 5.55724907003e-17 -2.55866060062e-06)
(0 -5.55114758001e-17 -0.00177248657683)
(-0.0013616690832 -5.55723318873e-17 -1.8518699535e-06)
(0 5.55118469066e-17 -0.00251747091754)
(-0.00190832525357 0 -3.64490123417e-06)
(0 0 -0.00374242581115)
(-0.0027408258058 0 -7.5098627077e-06)
(0 -5.55131962628e-17 -0.00591478704122)
(-0.00416912620288 -5.56416940829e-17 -1.73852562657e-05)
(1.11022302463e-16 0 -0.010114268847)
(-0.00675068454979 5.56932738439e-17 -4.55671207115e-05)
(0 1.66560954903e-16 -0.0193218048566)
(-0.0119199955495 0 -0.00014208634695)
(0 0 -0.0430456297964)
(-0.0237516027673 -1.67885543245e-16 -0.000564338081752)
(0 -1.66767023985e-16 -0.112581744778)
(-0.0556635560932 -1.69227695046e-16 -0.00310324325219)
(0 -1.11130531728e-16 -0.197918329849)
(-0.150641094451 5.79895875998e-17 -0.0229546899725)
(0 1.10325060192e-16 4.41300240767e-16)
(-0.208636304126 0 -0.0445083827592)
(0 0 0.197918329849)
(0.208636304126 -1.21038192935e-16 -0.0445083827592)
(0 0 0.112581744778)
(0.150641094451 0 -0.0229546899725)
(0 0 0.0430456297964)
(0.0556635560932 0 -0.00310324325219)
(0 5.55203183011e-17 0.0193218048566)
(0.0237516027673 0 -0.000564338081752)
(1.11022302463e-16 -5.55151572482e-17 0.010114268847)
(0.0119199955495 -5.57829741092e-17 -0.00014208634695)
(0 0 0.00591478704122)
(0.00675068454979 -1.11386547688e-16 -4.55671207115e-05)
(0 0 0.00374242581115)
(0.00416912620288 0 -1.73852562657e-05)
(0 -1.11023693813e-16 0.00251747091754)
(0.0027408258058 5.56093701623e-17 -7.5098627077e-06)
(0 1.665344274e-16 0.00177248657683)
(0.00190832525357 1.11175370156e-16 -3.64490123417e-06)
(0.00136166908321 -5.55723318873e-17 -1.8518699535e-06)
(0 0 -0.00149748864178)
(-0.00113916399075 0 -1.29864694942e-06)
(0 5.55117079271e-17 -0.00212997493464)
(-0.00158166928939 5.55876530677e-17 -2.49903747751e-06)
(0 -5.55123116522e-17 -0.0031674373349)
(-0.00228915790532 -1.66827921681e-16 -5.24217160336e-06)
(0 5.55131034884e-17 -0.00500481974591)
(-0.00347081664873 0 -1.20437337713e-05)
(0 -5.55151571031e-17 -0.00855938509829)
(-0.00562907246318 -5.56928877498e-17 -3.16916779676e-05)
(0 0 -0.0163497925174)
(-0.00993866670652 0 -9.87903470627e-05)
(0 0 -0.0364235838042)
(-0.0197869707413 0 -0.000391584150969)
(0 5.55890088082e-17 -0.0952607126305)
(-0.0464099383411 0 -0.00215620573533)
(0 -1.6669564836e-16 -0.167468024492)
(-0.125969415615 -5.77883174511e-17 -0.0159955963948)
(0 0 8.82602010739e-16)
(-0.175034511516 1.20230671525e-16 -0.0311176354572)
(0 1.1113043224e-16 0.167468024492)
(0.175034511516 1.80346007288e-16 -0.0311176354572)
(0 0 0.0952607126305)
(0.125969415615 0 -0.0159955963948)
(0 0 0.0364235838042)
(0.0464099383411 0 -0.00215620573533)
(0 0 0.0163497925174)
(0.0197869707413 0 -0.000391584150969)
(0 -1.11030314206e-16 0.00855938509829)
(0.00993866670652 0 -9.87903470627e-05)
(0 1.11026206977e-16 0.00500481974591)
(0.00562907246318 1.113857755e-16 -3.16916779676e-05)
(0 5.55123116522e-17 0.0031674373349)
(0.00347081664873 0 -1.20437337713e-05)
(0 -5.55117079271e-17 0.00212997493464)
(0.00228915790533 -5.56093072269e-17 -5.24217160336e-06)
(0 0 0.00149748864178)
(0.00158166928939 -1.11175306135e-16 -2.49903747751e-06)
(0.00113916399075 0 -1.29864694942e-06)
(0 5.55115221056e-17 -0.00122499098859)
(-0.000910834891496 0 -8.28859751056e-07)
(0 -1.6653554072e-16 -0.00174247959407)
(-0.00126916348138 -5.5587489367e-17 -1.61183762115e-06)
(0 1.11024437869e-16 -0.00259244886012)
(-0.00182999693576 1.11218230485e-16 -3.34889439224e-06)
(0 0 -0.00409485244999)
(-0.00277915171989 0 -7.72604178112e-06)
(1.11022302463e-16 0 -0.00700449341539)
(-0.00450079274556 -1.11385138007e-16 -2.02535673552e-05)
(0 0 -0.0133752868332)
(-0.00794974878197 0 -6.32005028165e-05)
(0 0 -0.0297990742957)
(-0.0158288652023 0 -0.000250570936152)
(0 0 -0.07794220638)
(-0.0371434949706 0 -0.00138062370806)
(0 0 -0.137020204079)
(-0.10106888683 0 -0.010267588213)
(0 5.51625300958e-17 -8.82600481534e-16)
(-0.140804088045 5.97828631467e-17 -0.0200251574017)
(0 -5.55653131051e-17 0.137020204079)
(0.140804088045 -5.97828631467e-17 -0.0200251574017)
(0 0 0.07794220638)
(0.10106888683 0 -0.010267588213)
(0 0 0.0297990742957)
(0.0371434949706 0 -0.00138062370806)
(0 0 0.0133752868332)
(0.0158288652023 5.59532086078e-17 -0.000250570936152)
(1.11022302463e-16 0 0.00700449341539)
(0.00794974878197 0 -6.32005028165e-05)
(0 0 0.00409485244999)
(0.00450079274556 0 -2.02535673552e-05)
(0 0 0.00259244886012)
(0.00277915171989 0 -7.72604178112e-06)
(0 -1.11023693813e-16 0.00174247959408)
(0.00182999693576 0 -3.34889439224e-06)
(0 1.11023044211e-16 0.00122499098859)
(0.00126916348138 1.11174978734e-16 -1.61183762137e-06)
(0.000910834891496 5.55724425988e-17 -8.28859751056e-07)
(1.11022302463e-16 0 -0.000954993016141)
(-0.000688329495965 0 -4.74947352558e-07)
(1.11022302463e-16 0 -0.00135498404929)
(-0.000950835065444 5.55874696223e-17 -9.03293311927e-07)
(0 0 -0.0020149597977)
(-0.00136999871433 -1.11218148628e-16 -1.87689823827e-06)
(0 -1.11026206977e-16 -0.00318488515457)
(-0.00208083303683 5.56413306783e-17 -4.32813271667e-06)
(0 1.11030407277e-16 -0.00544710761182)
(-0.00337914238926 1.11384646496e-16 -1.14215012753e-05)
(0 0 -0.0104032803051)
(-0.00595989414845 0 -3.55209691247e-05)
(0 0 -0.0231770608753)
(-0.0118783135561 -1.11900294252e-16 -0.000141114365046)
(0 0 -0.0606211055427)
(-0.0278608988499 0 -0.000776483250946)
(0 5.55652161202e-17 -0.106572384086)
(-0.0759698432381 5.74939912143e-17 -0.00578814235631)
(0 -5.51626256712e-17 0)
(-0.106067323848 -5.9523061529e-17 -0.0113142014349)
(0 0 0.106572384086)
(0.106067323848 5.9523061529e-17 -0.0113142014349)
(0 0 0.0606211055427)
(0.0759698432381 5.74939912143e-17 -0.00578814235631)
(0 5.55363968033e-17 0.0231770608753)
(0.0278608988499 0 -0.000776483250946)
(0 -5.55203183011e-17 0.0104032803051)
(0.0118783135561 -5.59501471259e-17 -0.000141114365046)
(0 0 0.00544710761182)
(0.00595989414845 0 -3.55209691247e-05)
(0 0 0.00318488515457)
(0.00337914238926 0 -1.14215012753e-05)
(0 0 0.0020149597977)
(0.00208083303683 5.56413306783e-17 -4.32813271667e-06)
(1.11022302463e-16 0 0.00135498404929)
(0.00136999871432 0 -1.87689823827e-06)
(1.11022302463e-16 5.55116147381e-17 0.000954993016141)
(0.000950835065441 0 -9.03293311927e-07)
(0.000688329495963 -5.55722937231e-17 -4.74947352558e-07)
(0 5.55114758001e-17 -0.000682494837241)
(-0.000451670293991 5.55722861208e-17 -2.03251632414e-07)
(0 -1.6653554072e-16 -0.000967488913315)
(-0.000638328609127 -5.55875950677e-17 -4.08530309581e-07)
(0 1.66536656803e-16 -0.00143747142889)
(-0.000910835711575 1.11218368884e-16 -8.28860497126e-07)
(0 -5.55131962628e-17 -0.00227491785876)
(-0.00138916112192 -5.56412640675e-17 -1.93093395962e-06)
(1.11022302463e-16 0 -0.00388971928946)
(-0.00225083260571 0 -5.06437336278e-06)
(0 -1.11040730063e-16 -0.00743126796639)
(-0.00397081095599 0 -1.57641194951e-05)
(0 1.11072512181e-16 -0.016557550364)
(-0.00791975499343 1.1189562554e-16 -6.27244595478e-05)
(1.11022302463e-16 5.55890548401e-17 -0.0433001162089)
(-0.0185850725835 0 -0.000345496499327)
(0 -5.55652658638e-17 -0.076122039651)
(-0.0507245935704 0 -0.00257630210744)
(0 5.51625300958e-17 0)
(-0.070931822288 0 -0.0050439618829)
(0 0 0.076122039651)
(0.070931822288 0 -0.0050439618829)
(1.11022302463e-16 -5.55890548401e-17 0.0433001162089)
(0.0507245935704 -5.74017348517e-17 -0.00257630210744)
(0 0 0.016557550364)
(0.0185850725835 0 -0.000345496499327)
(0 0 0.00743126796639)
(0.00791975499343 0 -6.27244595478e-05)
(1.11022302463e-16 0 0.00388971928946)
(0.00397081095599 0 -1.57641194949e-05)
(0 5.55131962628e-17 0.00227491785876)
(0.00225083260571 0 -5.06437336301e-06)
(0 -5.55122189343e-17 0.00143747142889)
(0.00138916112192 -5.56412640675e-17 -1.93093395962e-06)
(0 0 0.000967488913316)
(0.000910835711576 0 -8.28860497126e-07)
(0 0 0.000682494837241)
(0.000638328609129 0 -4.08530309581e-07)
(0.000451670293993 5.55722861208e-17 -2.03251632414e-07)
(0 -5.55116610694e-17 -0.000407496902304)
(-0.00022916472596 -5.55724210589e-17 -5.27078867218e-08)
(0 0 -0.000579993163994)
(-0.000311671244641 5.55875863543e-17 -9.66180858653e-08)
(0 0 -0.000862482953172)
(-0.000459163863229 -1.11218334601e-16 -2.11215376855e-07)
(0 0 -0.00136495056322)
(-0.000690837370405 0 -4.7667778591e-07)
(0 0 -0.00233483265333)
(-0.00112916097914 0 -1.27595190647e-06)
(1.11022302463e-16 0 -0.00445926227456)
(-0.00198915382368 0 -3.95841610923e-06)
(0 0 -0.00993552233939)
(-0.00395996557259 0 -1.56814636675e-05)
(0 5.55889619631e-17 -0.0259790579893)
(-0.00929045299494 0 -8.6308308323e-05)
(0 -5.55652161202e-17 -0.0456717169285)
(-0.0253827208681 -1.7203939488e-16 -0.000644467282841)
(0 5.51626256712e-17 1.76520402148e-15)
(-0.0355366081486 0 -0.00126368178576)
(0 -5.55652161202e-17 0.0456717169285)
(0.0355366081486 -5.92246928081e-17 -0.00126368178576)
(0 0 0.0259790579893)
(0.0253827208681 0 -0.000644467282841)
(0 0 0.00993552233939)
(0.00929045299494 0 -8.6308308323e-05)
(1.11022302463e-16 0 0.00445926227456)
(0.00395996557259 0 -1.56814636677e-05)
(0 0 0.00233483265333)
(0.00198915382368 0 -3.95841610923e-06)
(0 0 0.00136495056322)
(0.00112916097914 0 -1.27595190647e-06)
(0 0 0.00086248295317)
(0.000690837370403 0 -4.7667778591e-07)
(0 0 0.000579993163996)
(0.000459163863229 0 -2.11215376855e-07)
(0 5.55116610694e-17 0.000407496902302)
(0.000311671244641 0 -9.66180858653e-08)
(0.00022916472596 -5.55724210589e-17 -5.27078867218e-08)
(0 5.55115221056e-17 -0.000134999098861)
(0 -1.6653554072e-16 -0.00019249758985)
(0 1.11024437869e-16 -0.000287494477853)
(0 0 -0.000454983267523)
(1.11022302463e-16 0 -0.000779943857895)
(0 0 -0.00148725409258)
(0 0 -0.00331100949794)
(0 -1.11177920539e-16 -0.0086580262365)
(0 1.1113062621e-16 -0.0152238967022)
(0 0 0)
(0 0 0.0152238967022)
(0 0 0.0086580262365)
(0 0 0.00331100949794)
(0 0 0.00148725409258)
(1.11022302463e-16 0 0.000779943857893)
(0 0 0.000454983267521)
(0 0 0.000287494477853)
(0 0 0.000192497589852)
(0 0 0.000134999098861)
)
;

boundaryField
{
    inlet
    {
        type            cyclic;
        value           nonuniform List<vector> 10((-1.11022302463e-16 -1.11026592077e-16 0) (0 0 2.22052755825e-16) (0 -5.55132815944e-17 0) (-1.11022302463e-16 0 4.44106993692e-16) (0 0 -1.7764220466e-15) (0 0 1.77642501102e-15) (0 5.55131889564e-17 -8.88211023302e-16) (-1.11022302463e-16 0 1.77642797477e-15) (0 0 0) (0 0 0));
    }
    outlet
    {
        type            cyclic;
        value           nonuniform List<vector> 10((1.11022302463e-16 1.11026592077e-16 0) (0 0 -2.22052755825e-16) (0 5.55132815944e-17 0) (1.11022302463e-16 0 -4.44106993692e-16) (0 0 1.7764220466e-15) (0 0 -1.77642501102e-15) (0 -5.55131889564e-17 8.88211023302e-16) (1.11022302463e-16 0 -1.77642797477e-15) (0 0 0) (0 0 0));
    }
    ground
    {
        type            calculated;
        value           uniform (0 0 0);
    }
    top
    {
        type            calculated;
        value           uniform (0 0 0);
    }
    frontAndBack
    {
        type            empty;
        value           nonuniform List<vector> 0();
    }
}


// ************************************************************************* //
