/*--------------------------------*- C++ -*----------------------------------*\
  =========                 |
  \\      /  F ield         | OpenFOAM: The Open Source CFD Toolbox
   \\    /   O peration     | Website:  https://openfoam.org
    \\  /    A nd           | Version:  10
     \\/     M anipulation  |
\*---------------------------------------------------------------------------*/
FoamFile
{
    format      ascii;
    class       volScalarField;
    location    "constant";
    object      P;
}
// * * * * * * * * * * * * * * * * * * * * * * * * * * * * * * * * * * * * * //

dimensions      [0 0 0 0 0 0 0];

internalField   nonuniform List<scalar> 
200
(
0.948953
0.948695
0.948327
0.94778
0.946915
0.945437
0.942614
0.936325
0.919894
0.890996
0.890996
0.919894
0.936325
0.942614
0.945437
0.946915
0.94778
0.948327
0.948695
0.948953
0.849064
0.848832
0.848503
0.848013
0.84724
0.845917
0.843391
0.837765
0.823063
0.797206
0.797206
0.823063
0.837765
0.843391
0.845917
0.84724
0.848013
0.848503
0.848832
0.849064
0.749174
0.748969
0.748679
0.748247
0.747565
0.746397
0.744168
0.739204
0.726232
0.703417
0.703417
0.726232
0.739204
0.744168
0.746397
0.747565
0.748247
0.748679
0.748969
0.749174
0.649284
0.649107
0.648855
0.648481
0.647889
0.646878
0.644946
0.640643
0.629401
0.609629
0.609629
0.629401
0.640643
0.644946
0.646878
0.647889
0.648481
0.648855
0.649107
0.649284
0.549394
0.549244
0.549031
0.548715
0.548214
0.547358
0.545723
0.542083
0.53257
0.51584
0.51584
0.53257
0.542083
0.545723
0.547358
0.548214
0.548715
0.549031
0.549244
0.549394
0.449504
0.449382
0.449208
0.448948
0.448539
0.447838
0.446501
0.443523
0.435739
0.422051
0.422051
0.435739
0.443523
0.446501
0.447838
0.448539
0.448948
0.449208
0.449382
0.449504
0.349615
0.349519
0.349384
0.349182
0.348864
0.348319
0.347279
0.344962
0.338908
0.328262
0.328262
0.338908
0.344962
0.347279
0.348319
0.348864
0.349182
0.349384
0.349519
0.349615
0.249725
0.249656
0.24956
0.249416
0.249188
0.248799
0.248056
0.246401
0.242077
0.234473
0.234473
0.242077
0.246401
0.248056
0.248799
0.249188
0.249416
0.24956
0.249656
0.249725
0.149835
0.149794
0.149736
0.14965
0.149513
0.14928
0.148834
0.147841
0.145246
0.140684
0.140684
0.145246
0.147841
0.148834
0.14928
0.149513
0.14965
0.149736
0.149794
0.149835
0.0499448
0.0499313
0.049912
0.0498833
0.0498378
0.0497598
0.0496111
0.0492801
0.0484155
0.0468946
0.0468946
0.0484155
0.0492801
0.0496111
0.0497598
0.0498378
0.0498833
0.049912
0.0499313
0.0499448
)
;

boundaryField
{
    inlet
    {
        type            cyclic;
    }
    outlet
    {
        type            cyclic;
    }
    ground
    {
        type            calculated;
        value           uniform 0;
    }
    top
    {
        type            calculated;
        value           uniform 0;
    }
    frontAndBack
    {
        type            empty;
    }
}


// ************************************************************************* //
