/*--------------------------------*- C++ -*----------------------------------*\
  =========                 |
  \\      /  F ield         | OpenFOAM: The Open Source CFD Toolbox
   \\    /   O peration     | Website:  https://openfoam.org
    \\  /    A nd           | Version:  10
     \\/     M anipulation  |
\*---------------------------------------------------------------------------*/
FoamFile
{
    format      ascii;
    class       surfaceScalarField;
    location    "constant";
    object      Pf;
}
// * * * * * * * * * * * * * * * * * * * * * * * * * * * * * * * * * * * * * //

dimensions      [0 0 0 0 0 0 0];

internalField   nonuniform List<scalar> 
370
(
0.948845
0.899008
0.948544
0.898764
0.948109
0.898415
0.94745
0.897896
0.946381
0.897077
0.944493
0.895677
0.940732
0.893002
0.931905
0.887038
0.907778
0.871429
0.874
0.844
0.907778
0.844
0.931905
0.871428
0.940732
0.887038
0.944493
0.893002
0.946381
0.895677
0.94745
0.897077
0.948109
0.897896
0.948544
0.898415
0.948845
0.898764
0.899008
0.848966
0.799119
0.848697
0.798901
0.848309
0.798591
0.847718
0.79813
0.846761
0.797402
0.845073
0.796157
0.841707
0.793778
0.833809
0.788478
0.812222
0.774603
0.782
0.750222
0.812222
0.750222
0.833809
0.774603
0.841707
0.788479
0.845073
0.793778
0.846761
0.796157
0.847718
0.797402
0.848309
0.79813
0.848697
0.798591
0.848966
0.798901
0.799119
0.749088
0.699229
0.74885
0.699038
0.748507
0.698767
0.747987
0.698364
0.747143
0.697727
0.745652
0.696638
0.742683
0.694557
0.735715
0.689919
0.716667
0.677778
0.69
0.656444
0.716667
0.656444
0.735715
0.677778
0.742683
0.689919
0.745652
0.694557
0.747143
0.696638
0.747987
0.697727
0.748507
0.698364
0.74885
0.698767
0.749088
0.699038
0.699229
0.64921
0.599339
0.649004
0.599175
0.648706
0.598943
0.648255
0.598597
0.647523
0.598052
0.646232
0.597118
0.643658
0.595334
0.637619
0.591359
0.621111
0.580952
0.598
0.562666
0.621111
0.562666
0.637619
0.580952
0.643658
0.591359
0.646232
0.595334
0.647523
0.597118
0.648255
0.598052
0.648706
0.598597
0.649004
0.598943
0.64921
0.599175
0.599339
0.549332
0.499449
0.549157
0.499313
0.548906
0.49912
0.548523
0.498832
0.547905
0.498377
0.546812
0.497598
0.544634
0.496112
0.539524
0.492799
0.525555
0.484127
0.506
0.468889
0.525555
0.468889
0.539524
0.484127
0.544634
0.492799
0.546812
0.496112
0.547905
0.497598
0.548523
0.498377
0.548906
0.498832
0.549157
0.49912
0.549332
0.499313
0.499449
0.449453
0.399559
0.44931
0.39945
0.449104
0.399296
0.448792
0.399065
0.448286
0.398701
0.447391
0.398078
0.44561
0.39689
0.441428
0.394239
0.43
0.387302
0.414
0.375111
0.43
0.375111
0.441428
0.387301
0.44561
0.394239
0.447391
0.39689
0.448286
0.398079
0.448792
0.398701
0.449104
0.399065
0.44931
0.399296
0.449453
0.39945
0.399559
0.349575
0.299669
0.349463
0.299587
0.349304
0.299472
0.34906
0.299299
0.348666
0.299026
0.347971
0.298559
0.346585
0.297667
0.343333
0.295679
0.334445
0.290477
0.322
0.281333
0.334445
0.281333
0.343333
0.290477
0.346585
0.295679
0.347971
0.297667
0.348666
0.298559
0.34906
0.299026
0.349304
0.299299
0.349463
0.299472
0.349575
0.299587
0.299669
0.249696
0.19978
0.249617
0.199725
0.249503
0.199647
0.249329
0.199533
0.249047
0.19935
0.248551
0.19904
0.247561
0.198445
0.245238
0.197119
0.238889
0.19365
0.23
0.187556
0.238889
0.187556
0.245238
0.19365
0.247561
0.197119
0.248551
0.198445
0.249047
0.19904
0.249329
0.19935
0.249503
0.199532
0.249617
0.199647
0.249696
0.199725
0.199779
0.149818
0.0998895
0.14977
0.0998625
0.149702
0.099824
0.149597
0.0997665
0.149429
0.0996755
0.149131
0.0995195
0.148537
0.099222
0.147143
0.0985595
0.143334
0.0968255
0.138
0.093778
0.143334
0.093778
0.147143
0.0968255
0.148537
0.0985595
0.149131
0.099222
0.149429
0.0995195
0.149597
0.0996755
0.149702
0.0997665
0.14977
0.099824
0.149818
0.0998625
0.0998895
0.049939
0.0499235
0.0499005
0.049866
0.0498095
0.04971
0.049512
0.0490475
0.047778
0.046
0.047778
0.0490475
0.049512
0.04971
0.0498095
0.049866
0.0499005
0.0499235
0.049939
)
;

boundaryField
{
    inlet
    {
        type            cyclic;
        value           uniform 0;
    }
    outlet
    {
        type            cyclic;
        value           uniform 0;
    }
    ground
    {
        type            calculated;
        value           uniform 0;
    }
    top
    {
        type            calculated;
        value           uniform 0;
    }
    frontAndBack
    {
        type            empty;
        value           nonuniform List<scalar> 0();
    }
}


// ************************************************************************* //
