/*--------------------------------*- C++ -*----------------------------------*\
| =========                 |                                                 |
| \\      /  F ield         | OpenFOAM: The Open Source CFD Toolbox           |
|  \\    /   O peration     | Version:  dev                                   |
|   \\  /    A nd           | Web:      www.OpenFOAM.org                      |
|    \\/     M anipulation  |                                                 |
\*---------------------------------------------------------------------------*/
FoamFile
{
    version     2.0;
    format      ascii;
    class       dictionary;
    object      setFieldsDict;
}
// * * * * * * * * * * * * * * * * * * * * * * * * * * * * * * * * * * * * * //

regions
(
    // A buoyancy perturbation near the top
    boxToCell
    {
        box (-0.5 0 0.99) (0.5 1 1);
        fieldValues
        (
            volScalarFieldValue b.air -0.5
        );
    }
    // A buoyancy perturbation at the ground
    boxToCell
    {
        box (-1.01 0 0) (-0.51 1 0.01);
        fieldValues
        (
            volScalarFieldValue b.air 0.5
        );
    }
    // Another buoyancy perturbation at the ground
    boxToCell
    {
        box (0.51 0 0) (1.01 1 0.01);
        fieldValues
        (
            volScalarFieldValue b.air 0.5
        );
    }
);

// ************************************************************************* //
