/*---------------------------------------------------------------------------*\
| =========                 |                                                 |
| \\      /  F ield         | OpenFOAM: The Open Source CFD Toolbox           |
|  \\    /   O peration     | Version:  1.4                                   |
|   \\  /    A nd           | Web:      http://www.openfoam.org               |
|    \\/     M anipulation  |                                                 |
\*---------------------------------------------------------------------------*/

FoamFile
{
    version         2.0;
    format          ascii;

    root            "";
    case            "";
    instance        "";
    local           "";

    class           dictionary;
    object          fvSchemes;
}

// * * * * * * * * * * * * * * * * * * * * * * * * * * * * * * * * * * * * * //

ddtSchemes
{
    default         CrankNicolson 0.9;
    volFlux_CN      0.9;
    ddt(rho.stable,epsilon.stable) Euler;
    ddt(rho.buoyant,epsilon.buoyant) Euler;
    ddt(rho.stable,k.stable) Euler;
    ddt(rho.buoyant,k.buoyant) Euler;
}

gradSchemes
{
    grad((theta.sum|rho.sum)) Gauss linear;
    grad(theta.stable)        Gauss linear;
    grad(theta.buoyant)       Gauss linear;
    grad(u.stable)            Gauss linear;
    grad(u.buoyant)           Gauss linear;
    linearUpwind              Gauss linear;
    grad(rho.stable)          Gauss linear;
    grad(rho.buoyant)         Gauss linear;
}

divSchemes
{
    default none;
    sigmaRho Gauss vanLeer;
    theta Gauss vanLeer;
    u Gauss linearUpwind linearUpwind;

    // for partitionedTurbulentFoam
    div(volFlux.sigmaRhof.stable,epsilon.stable)   Gauss upwind;
    div(volFlux.sigmaRhof.buoyant,epsilon.buoyant) Gauss upwind;
    div(volFlux.sigmaRhof.stable,k.stable)         Gauss upwind;
    div(volFlux.sigmaRhof.buoyant,k.buoyant)       Gauss upwind;
    div(((rho.stable*nuEff.stable)*dev2(T(grad(u.stable))))) Gauss linear;
    div(((rho.buoyant*nuEff.buoyant)*dev2(T(grad(u.buoyant))))) Gauss linear;
}

laplacianSchemes
{
    default         Gauss linear uncorrected;
}

interpolationSchemes
{
    default        none;
    // For initialisation
    interpolate(theta) linear;
    
    // for partitionedExnerFoamAdv
    convection      linear;
    Uf              linear;
    rho             linear;
    sigma           linear;
    sigmaRho        linear;
    theta           linear;
    massTransfer    linear;
    
    // for partitionedTurbulentFoam
    interpolate(rho.stable)    linear;
    interpolate(rho.buoyant)   linear;
    interpolate(theta.stable)  linear;
    interpolate(theta.buoyant) linear;
    interpolate(u.stable)      linear;
    interpolate(u.buoyant)     linear;
}

snGradSchemes
{
    default         uncorrected;
}

fluxRequired
{
    default         no;
    Exner;
}


// ************************************************************************* //
