/*---------------------------------------------------------------------------*\
| =========                 |                                                 |
| \\      /  F ield         | OpenFOAM: The Open Source CFD Toolbox           |
|  \\    /   O peration     | Version:  1.4                                   |
|   \\  /    A nd           | Web:      http://www.openfoam.org               |
|    \\/     M anipulation  |                                                 |
\*---------------------------------------------------------------------------*/

FoamFile
{
    version         2.0;
    format          ascii;

    root            "";
    case            "";
    instance        "";
    local           "";

    class           dictionary;
    object          fvSchemes;
}

// * * * * * * * * * * * * * * * * * * * * * * * * * * * * * * * * * * * * * //

//CoLimit 1;
//fullImplicit true;
ddtSchemes
{
    default Euler; //CrankNicolson 1; //
}

gradSchemes
{
    default         none;
    linearUpwind    Gauss linear;
}

divSchemes
{
    default             none;
    //div(phi,T)          Gauss linearUpwind linearUpwind; //QUICKupwind 1 2;
    div(phi,T)          adaptiveImplicitAdvection
    {
        correctionScheme QUICKupwind 1 2; //linearUpwind linearUpwind; //
        nCorr 1;
        offCentre offCentre;
        CoLimit 1;
        FCTlimit true;
        //FCTmin 0;
        //FCTmax 1.00263;
    };
}

laplacianSchemes
{
    default         none;
}

interpolationSchemes
{
    default        linear;
}

snGradSchemes
{
    default         none;
}


// ************************************************************************* //
