/*---------------------------------------------------------------------------*\
| =========                 |                                                 |
| \\      /  F ield         | OpenFOAM: The Open Source CFD Toolbox           |
|  \\    /   O peration     | Version:  1.4                                   |
|   \\  /    A nd           | Web:      http://www.openfoam.org               |
|    \\/     M anipulation  |                                                 |
\*---------------------------------------------------------------------------*/

FoamFile
{
    version         2.0;
    format          ascii;

    root            "";
    case            "";
    instance        "";
    local           "";

    class           dictionary;
    object          thermophysicalProperties;
}

// * * * * * * * * * * * * * * * * * * * * * * * * * * * * * * * * * * * * * //

Boussinesq    false;
hydrostatic   false;

Tref       250;
pRef     100000;

thermoType 
{
    type            heRhoThermo;
    mixture         pureMixture;
    transport       const;
    thermo          hConst;
    equationOfState perfectGas;
    specie          specie;
    energy          sensibleEnthalpy;
}
mixture
{
    specie {molWeight 28.9;}
    thermodynamics{Cp 1005; Hf 0;}
    transport{mu 0; Pr 0.7;}
}
specie {molWeight 28.9;}
thermodynamics{Cp 1005; Hf 0;}
transport{mu 0; Pr 0.7;}

// ************************************************************************* //
