/*--------------------------------*- C++ -*----------------------------------*\
| =========                 |                                                 |
| \\      /  F ield         | OpenFOAM: The Open Source CFD Toolbox           |
|  \\    /   O peration     | Version:  dev                                   |
|   \\  /    A nd           | Web:      www.OpenFOAM.org                      |
|    \\/     M anipulation  |                                                 |
\*---------------------------------------------------------------------------*/
FoamFile
{
    version     2.0;
    format      ascii;
    class       volScalarField;
    location    "constant";
    object      gh;
}
// * * * * * * * * * * * * * * * * * * * * * * * * * * * * * * * * * * * * * //

dimensions      [0 2 -2 0 0 0 0];

internalField   nonuniform List<scalar> 10(-196.2 -588.6 -981 -1373.4 -1765.8 -2158.2 -2550.6 -2943 -3335.4 -3727.8);

boundaryField
{
    ground
    {
        type            calculated;
        value           uniform 0;
    }
    top
    {
        type            calculated;
        value           uniform -3924;
    }
    inlet
    {
        type            cyclic;
    }
    outlet
    {
        type            cyclic;
    }
    front
    {
        type            calculated;
        value           nonuniform List<scalar> 10(-196.2 -588.6 -981 -1373.4 -1765.8 -2158.2 -2550.6 -2943 -3335.4 -3727.8);
    }
    back
    {
        type            calculated;
        value           nonuniform List<scalar> 10(-196.2 -588.6 -981 -1373.4 -1765.8 -2158.2 -2550.6 -2943 -3335.4 -3727.8);
    }
}


// ************************************************************************* //
