/*---------------------------------------------------------------------------*\
| =========                 |                                                 |
| \\      /  F ield         | OpenFOAM: The Open Source CFD Toolbox           |
|  \\    /   O peration     | Version:  1.4                                   |
|   \\  /    A nd           | Web:      http://www.openfoam.org               |
|    \\/     M anipulation  |                                                 |
\*---------------------------------------------------------------------------*/

FoamFile
{
    version         2.0;
    format          ascii;

    root            "";
    case            "";
    instance        "";
    local           "";

    class           dictionary;
    object          blockMeshDict;
}

// * * * * * * * * * * * * * * * * * * * * * * * * * * * * * * * * * * * * * //

convertToMeters 1000;

vertices
(
    (-10.1 1  0)         // 0
    ( 10.1 1  0)         // 1
    ( 10.1 1  10)        // 2
    (-10.1 1  10)        // 3
    (-10.1 0  0)         // 4
    ( 10.1 0  0)         // 5
    ( 10.1 0  10)        // 6
    (-10.1 0  10)        // 7
);

blocks
(
    hex (0 1 2 3 4 5 6 7) (1 150 1) 
    simpleGrading
    // Need dz near the ground to be ~H/1500
    (
        1
        (
            (0.08 0.15 8)     // % of distance, % cells, expansion
            (0.84 0.70 1)     // 
            (0.08 0.15 0.125) // 
        )
        1
    )
);

edges
(
);

boundary
(
    ground
    {
        type wall;
        faces
        (
            (1 5 4 0)
        );
    }
    top
    {
        type wall;
        faces
        (
            (3 7 6 2)
        );
    }
    left
    {
        type cyclic;
        neighbourPatch right;
        faces
        (
            (0 4 7 3)
        );
    }
    right
    {
        type cyclic;
        neighbourPatch left;
        faces
        (
            (1 5 6 2)
        );
    }
    frontAndBack
    {
        type empty;
        faces
        (
            (0 3 2 1)
            (4 5 6 7)
        );
    }
);

mergePatchPairs
(
);

// ************************************************************************* //
