/*---------------------------------------------------------------------------*\
| =========                 |                                                 |
| \\      /  F ield         | OpenFOAM: The Open Source CFD Toolbox           |
|  \\    /   O peration     | Version:  1.4                                   |
|   \\  /    A nd           | Web:      http://www.openfoam.org               |
|    \\/     M anipulation  |                                                 |
\*---------------------------------------------------------------------------*/

FoamFile
{
    version         2.2;
    format          ascii;

    root            "";
    case            "";
    instance        "";
    local           "";

    class           dictionary;
    object          blockMeshDict;
}

// * * * * * * * * * * * * * * * * * * * * * * * * * * * * * * * * * * * * * //

convertToMeters 1;

vertices (
    (-10 0 0)  // 0
    ( 10 0 0)  // 1
    ( 10 1 0)  // 2
    (-10 1 0)  // 3
    (-10 0 10) // 4
    ( 10 0 10) // 5
    ( 10 1 10) // 6
    (-10 1 10) // 7
);

blocks
(
    hex (0 1 2 3 4 5 6 7) (20 1 10) simpleGrading (1 1 1)
);

boundary (
    inlet {
        type cyclic;
        neighbourPatch outlet;
        faces (
            (0 4 7 3)
        );
    }

    outlet {
        type cyclic;
        neighbourPatch inlet;
        faces (
            (1 5 6 2)
        );
    }

    ground
    {
        type wall;
        faces (
            (0 1 2 3)
        );    
    }

    top {
        type wall;
        faces (
            (4 5 6 7)
        );
    }

    frontAndBack {
        type empty;
        faces (
            (0 1 5 4)
            (3 2 6 7)
        );
    }
);
