/*---------------------------------------------------------------------------*\
| =========                 |                                                 |
| \\      /  F ield         | OpenFOAM: The Open Source CFD Toolbox           |
|  \\    /   O peration     | Version:  1.4                                   |
|   \\  /    A nd           | Web:      http://www.openfoam.org               |
|    \\/     M anipulation  |                                                 |
\*---------------------------------------------------------------------------*/

FoamFile
{
    version         2.0;
    format          ascii;

    root            "";
    case            "";
    instance        "";
    local           "";

    class           dictionary;
    object          fvSchemes;
}

// * * * * * * * * * * * * * * * * * * * * * * * * * * * * * * * * * * * * * //


ddtSchemes
{
}

gradSchemes
{
    default       leastSquares; //Gauss skewCorrected linear;
    //linearUpwind   cellLimited Gauss linear 1;
}

divSchemes
{
}

laplacianSchemes
{
}

interpolationSchemes
{
    default        none; //linear;
    interpolate(P) linear;
    interpolate(gradP2)  linear;
}

snGradSchemes
{
    default         corrected;
}

fluxRequired
{
    default         no;
}


// ************************************************************************* //
