FoamFile
{
    version         2.3;
    format          ascii;

    root            "";
    case            "";
    instance        "constant";
    local           "";

    class           dictionary;
    object          gmtDict;
}

// How to plot
// Compulsory inputs
projection "X18c/9c";
projection2D XZ;

FieldsToPlot
(
//    [b filledContours 0 0.1 0.005 "$GMTU/colours/red_white_blue.cpt"]
    [b filledContours 0 0 0 "$GMTU/colours/red_white_blue.cpt"]
    [u vectors 100 1 "black"]
);

separateLegend true;
//region "0/10/-0.1/1.1";
plotBoundaryDots false;
annotate "minMax 3 1.3";
