/*---------------------------------------------------------------------------*\
| =========                 |                                                 |
| \\      /  F ield         | OpenFOAM: The Open Source CFD Toolbox           |
|  \\    /   O peration     | Version:  1.4                                   |
|   \\  /    A nd           | Web:      http://www.openfoam.org               |
|    \\/     M anipulation  |                                                 |
\*---------------------------------------------------------------------------*/

FoamFile
{
    version         2.0;
    format          ascii;

    root            "";
    case            "";
    instance        "";
    local           "";

    class           dictionary;
    object          transferProperties;
}

// * * * * * * * * * * * * * * * * * * * * * * * * * * * * * * * * * * * * * //

noTransfers false;
// Diffusion coefficient for sigma
Ksigma Ksigma [0 2 -1 0 0] 50;
// Transfer between partitions based on horizontal divergence
divTransfer 1;
// Transfer w=0 if sigma=1
wTransfer0  false;
// Transfer to keep w[0] < 0
wTransfer false;
// Mininum allowable sigma in any fluid
minSigma  0;
// Fix transfers so that sigma is read in and kept fixed at locations given in
// constant/transferLocation
uniformSigma false;
// Transfer buoyancy anomalies based on linear combination of mean fluid 
// buoyancies
bAnomalyLinearCoeff 0;
// Transfer buoyancy anomalies based on constant factor times mean buoyancy
bAnomalyMeanCoeff 0;

// ************************************************************************* //
