/*--------------------------------*- C++ -*----------------------------------*\
| =========                 |                                                 |
| \\      /  F ield         | OpenFOAM: The Open Source CFD Toolbox           |
|  \\    /   O peration     | Version:  dev                                   |
|   \\  /    A nd           | Web:      www.OpenFOAM.org                      |
|    \\/     M anipulation  |                                                 |
\*---------------------------------------------------------------------------*/
FoamFile
{
    version     2.0;
    format      ascii;
    class       dictionary;
    object      setFieldsDict;
}
// * * * * * * * * * * * * * * * * * * * * * * * * * * * * * * * * * * * * * //

regions
(
    // Set cell values near lower boundary
    boxToCell
    {
        box (0 0 0) (200e3 1e3 1e3);
        fieldValues
        (
            volScalarFieldValue transferLocation.stable 1
            volScalarFieldValue transferLocation.buoyant 1
        );
    }

    // Set cell values near upper boundary
    boxToCell
    {
        box (0 0 9e3) (200e3 1e3 10e3);
        fieldValues
        (
            volScalarFieldValue transferLocation.stable 1
            volScalarFieldValue transferLocation.buoyant 1
        );
    }
);

// ************************************************************************* //
