/*--------------------------------*- C++ -*----------------------------------*\
  =========                 |
  \\      /  F ield         | OpenFOAM: The Open Source CFD Toolbox
   \\    /   O peration     | Website:  https://openfoam.org
    \\  /    A nd           | Version:  dev
     \\/     M anipulation  |
\*---------------------------------------------------------------------------*/
FoamFile
{
    version     2.0;
    format      ascii;
    class       dictionary;
    location    "system";
    object      fvSchemes;
}
// * * * * * * * * * * * * * * * * * * * * * * * * * * * * * * * * * * * * * //

ddtSchemes
{
    default         Euler;
}
offCentre 1;
CoLimit   10; // Limit for explicit advection

gradSchemes
{
    default         Gauss linear;
}

divSchemes
{
    default         none; //Gauss vanLeer;
    upwind          Gauss upwind;
    //explicit        Gauss fluxCorrectedTransport 0 0 cubicUpwindCPCFit Cartesian;
    explicit        Gauss fluxCorrectedTransport 0 0 linear;
    //explicit        Gauss fluxCorrectedTransport 0 0 MPDATA 1;
    implicit        Gauss upwind;
    
}

laplacianSchemes
{
    default         none;
}

interpolationSchemes
{
    default         none;
}

snGradSchemes
{
    default         uncorrected;
}


// ************************************************************************* //
