/*---------------------------------------------------------------------------*\
| =========                 |                                                 |
| \\      /  F ield         | OpenFOAM: The Open Source CFD Toolbox           |
|  \\    /   O peration     | Version:  1.4                                   |
|   \\  /    A nd           | Web:      http://www.openfoam.org               |
|    \\/     M anipulation  |                                                 |
\*---------------------------------------------------------------------------*/

FoamFile
{
    version         2.0;
    format          ascii;

    root            "";
    case            "";
    instance        "";
    local           "";

    class           dictionary;
    object          environmentalProperties;
}

// * * * * * * * * * * * * * * * * * * * * * * * * * * * * * * * * * * * * * //

nu       nu       [0 2 -1 0 0] 2.2357303057;
alpha    alpha    [0 2 -1 0 0] 3.1622776602;

// Simulation with Ra = 1e8
// H = 1e4, nu alpha = 7.07 => DeltaB = 1e8*7.07/1e12 = 7.07e-4

// ************************************************************************* //
