/*--------------------------------*- C++ -*----------------------------------*\
| =========                 |                                                 |
| \\      /  F ield         | OpenFOAM: The Open Source CFD Toolbox           |
|  \\    /   O peration     | Version:  dev                                   |
|   \\  /    A nd           | Web:      www.OpenFOAM.org                      |
|    \\/     M anipulation  |                                                 |
\*---------------------------------------------------------------------------*/
FoamFile
{
    version     2.0;
    format      ascii;
    class       dictionary;
    location    "system";
    object      velocityDict;
}
// * * * * * * * * * * * * * * * * * * * * * * * * * * * * * * * * * * * * * //

timeVaryingWind true;
type geodesicHadleyLike;
earthRadius 6.37122e6;
scaleHeight 8780.195305808; // R T/g
rho0 1.161440186;
ztop        12e3;
u0          40;
w0          0.15;
endTime     86400;
nOverturningCells 5;
applyProjection true;

