/*---------------------------------------------------------------------------*\
| =========                 |                                                 |
| \\      /  F ield         | OpenFOAM: The Open Source CFD Toolbox           |
|  \\    /   O peration     | Version:  1.4                                   |
|   \\  /    A nd           | Web:      http://www.openfoam.org               |
|    \\/     M anipulation  |                                                 |
\*---------------------------------------------------------------------------*/

FoamFile
{
    version         2.0;
    format          ascii;

    root            "";
    case            "";
    instance        "";
    local           "";

    class           dictionary;
    object          blockMeshDict;
}

// * * * * * * * * * * * * * * * * * * * * * * * * * * * * * * * * * * * * * //

convertToMeters 1;

vertices
(
    (-1.01  1.01  0)         // 0
    ( 1.01  1.01  0)         // 1
    ( 1.01  1.01  1)        // 2
    (-1.01  1.01  1)        // 3
    (-1.01 -1.01  0)         // 4
    ( 1.01 -1.01  0)         // 5
    ( 1.01 -1.01  1)        // 6
    (-1.01 -1.01  1)        // 7
);

blocks
(
    hex (0 1 2 3 4 5 6 7) (106 52 106)
    simpleGrading (1 1 1)
);
edges
(
);

boundary
(
    ground
    {
        type wall;
        faces
        (
            (1 5 4 0)
        );
    }
    top
    {
        type wall;
        faces
        (
            (3 7 6 2)
        );
    }
    left
    {
        type cyclic;
        neighbourPatch right;
        faces
        (
            (0 4 7 3)
        );
    }
    right
    {
        type cyclic;
        neighbourPatch left;
        faces
        (
            (1 5 6 2)
        );
    }
    front
    {
        type cyclic;
        neighbourPatch back;
        faces
        (
            (0 3 2 1)
        );
    }
    back
    {
        type cyclic;
        neighbourPatch front;
        faces
        (
            (4 5 6 7)
        );
    }
);

mergePatchPairs
(
);

// ************************************************************************* //
