/*--------------------------------*- C++ -*----------------------------------*\
| =========                 |                                                 |
| \\      /  F ield         | OpenFOAM: The Open Source CFD Toolbox           |
|  \\    /   O peration     | Version:  dev                                   |
|   \\  /    A nd           | Web:      www.OpenFOAM.org                      |
|    \\/     M anipulation  |                                                 |
\*---------------------------------------------------------------------------*/
FoamFile
{
    version     2.0;
    format      ascii;
    class       volScalarField;
    object      theta;
}
// * * * * * * * * * * * * * * * * * * * * * * * * * * * * * * * * * * * * * //

dimensions      [0 0 0 1 0 0 0];

internalField   uniform 265;

boundaryField
{
    ground
    {
        type            fixedValue;
        value           uniform 265;
    }

    top
    {
        type            fixedValue;
        value           uniform 268;
    }

    inlet
    {
        type            cyclic;
        value           uniform 265;
    }

    outlet
    {
        type            cyclic;
        value           uniform 265;
    }
    front
    {
        type           zeroGradient;
    }
    back
    {
        type           zeroGradient;
    }
}

// ************************************************************************* //
