/*---------------------------------------------------------------------------*\
| =========                 |                                                 |
| \\      /  F ield         | OpenFOAM: The Open Source CFD Toolbox           |
|  \\    /   O peration     | Version:  1.4                                   |
|   \\  /    A nd           | Web:      http://www.openfoam.org               |
|    \\/     M anipulation  |                                                 |
\*---------------------------------------------------------------------------*/

FoamFile
{
    version         2.0;
    format          ascii;

    root            "";
    case            "";
    instance        "";
    local           "";

    class           dictionary;
    object          environmentalProperties;
}

// * * * * * * * * * * * * * * * * * * * * * * * * * * * * * * * * * * * * * //

cloudRadiusMax     cloudRadiusMax [0 1 0 0 0] 1000;
cloudRadiusMin     cloudRadiusMin [0 1 0 0 0] 100;
dragCoeff       0;
heatTransferCoeff 0; //0.14;
Ksigma Ksigma [0 2 -1 0 0] 100; //800; // 1250; //0.25 dx^2/dt For dx = 100, dt = 2
//Ksigma Ksigma [0 2 -1 0 0] 2000; // 4000; //0.25 dx^2/dt For dx = 400, dt = 10
minSigma  1e-9;
// Transfer between partitions based on horizontal divergence
wTransfer true;

// ************************************************************************* //
