/*--------------------------------*- C++ -*----------------------------------*\
| =========                 |                                                 |
| \\      /  F ield         | OpenFOAM: The Open Source CFD Toolbox           |
|  \\    /   O peration     | Version:  dev                                   |
|   \\  /    A nd           | Web:      www.OpenFOAM.org                      |
|    \\/     M anipulation  |                                                 |
\*---------------------------------------------------------------------------*/
FoamFile
{
    version     2.0;
    format      ascii;
    class       dictionary;
    object      setFieldsDict;
}
// * * * * * * * * * * * * * * * * * * * * * * * * * * * * * * * * * * * * * //

defaultFieldValues
(
    volScalarFieldValue sigma.Stable 0
    volScalarFieldValue sigma.Up 0
    volScalarFieldValue sigma.Down 0
);

regions
(
    cellToCell
    {
        set stable;
        fieldValues
        (
            volScalarFieldValue sigma.Stable 1
        );
    }
    cellToCell
    {
        set up;
        fieldValues
        (
            volScalarFieldValue sigma.Up 1
        );
    }
    cellToCell
    {
        set down;
        fieldValues
        (
            volScalarFieldValue sigma.Down 1
        );
    }

);

// ************************************************************************* //
