/*---------------------------------------------------------------------------*\
| =========                 |                                                 |
| \\      /  F ield         | OpenFOAM: The Open Source CFD Toolbox           |
|  \\    /   O peration     | Version:  1.4                                   |
|   \\  /    A nd           | Web:      http://www.openfoam.org               |
|    \\/     M anipulation  |                                                 |
\*---------------------------------------------------------------------------*/

FoamFile
{
    version         2.0;
    format          ascii;

    root            "";
    case            "";
    instance        "";
    local           "";

    class           dictionary;
    object          fvSchemes;
}

// * * * * * * * * * * * * * * * * * * * * * * * * * * * * * * * * * * * * * //

ddtSchemes
{
    default CrankNicolson 0.9;
}

gradSchemes
{
    default         none;
    linearUpwind    Gauss linear;
    grad(Exner)     Gauss linear;
    grad(theta)     Gauss linear;
    grad(U)     Gauss linear;
}

divSchemes
{
    default             none;
    div(phi,theta)    Gauss linearUpwind linearUpwind;
    div(phi,U)        Gauss linearUpwind linearUpwind;
}

laplacianSchemes
{
    default         Gauss linear corrected;
}

interpolationSchemes
{
    default        linear;
}

snGradSchemes
{
    default         none;
    snGrad(Exner)   corrected;
    snGrad(theta)   corrected;
}

fluxRequired
{
    default         no;
    Exner;
}


// ************************************************************************* //
