/*---------------------------------------------------------------------------*\
| =========                 |                                                 |
| \\      /  F ield         | OpenFOAM: The Open Source CFD Toolbox           |
|  \\    /   O peration     | Version:  1.4                                   |
|   \\  /    A nd           | Web:      http://www.openfoam.org               |
|    \\/     M anipulation  |                                                 |
\*---------------------------------------------------------------------------*/

FoamFile
{
    version         2.0;
    format          ascii;

    root            "";
    case            "";
    instance        "";
    local           "";

    class           dictionary;
    object          fvSchemes;
}

// * * * * * * * * * * * * * * * * * * * * * * * * * * * * * * * * * * * * * //

SIgravityWaves true;

ddtSchemes
{
    ocCoeff      1;
    default      none;
}

gradSchemes
{
    default      Gauss linear;
}

divSchemes
{
    default none;
    CoLimitExp 2;
    div(phi,thetap)   Gauss QUICKupwind 1 1 rho;
    div(phi,U)        Gauss QUICKupwind 1 1 rho;
    div(((rho*nuEff)*dev2(T(grad(U))))) Gauss linear corrected;
}

laplacianSchemes
{
    default         Gauss linear corrected;
}

interpolationSchemes
{
    default        linear;
}

snGradSchemes
{
    default         corrected;
}

fluxRequired
{
    default         no;
    Exnerp;
}


// ************************************************************************* //
