/*---------------------------------------------------------------------------*\
| =========                 |                                                 |
| \\      /  F ield         | OpenFOAM: The Open Source CFD Toolbox           |
|  \\    /   O peration     | Version:  1.4                                   |
|   \\  /    A nd           | Web:      http://www.openfoam.org               |
|    \\/     M anipulation  |                                                 |
\*---------------------------------------------------------------------------*/

FoamFile
{
    version         2.0;
    format          ascii;

    root            "";
    case            "";
    instance        "";
    local           "";

    class           dictionary;
    object          transferProperties;
}

// * * * * * * * * * * * * * * * * * * * * * * * * * * * * * * * * * * * * * //

noTransfers false;
cloudRadiusMax     cloudRadiusMax [0 1 0 0 0] 1e3;
cloudRadiusMin     cloudRadiusMin [0 1 0 0 0] 1e3;
dragCoeff       0;
Ksigma Ksigma [0 2 -1 0 0] 0;
minSigma  0.1;
// Transfer between partitions based on horizontal divergence
wTransfer false;
divTransfer 1;
// Transfer between partitions based on laplacian(b)
buoyancyTransfer false;
bTransferDiffusivity bTransferDiffusivity  [0 2 -1 0 0] 0;
noAnomalies true;
transferAnomalies false;
transferAnomaliesLaplacian false;
transferAnomaliesb0 false;
transferAnomaliesLinComb 0;

uniformSigma false;

// ************************************************************************* //
