/*--------------------------------*- C++ -*----------------------------------*\
| =========                 |                                                 |
| \\      /  F ield         | OpenFOAM: The Open Source CFD Toolbox           |
|  \\    /   O peration     | Version:  1.5                                   |
|   \\  /    A nd           | Web:      http://www.OpenFOAM.org               |
|    \\/     M anipulation  |                                                 |
\*---------------------------------------------------------------------------*/
FoamFile
{
    version     2.0;
    format      ascii;
    class       dictionary;
    object      fvSolution;
}
// * * * * * * * * * * * * * * * * * * * * * * * * * * * * * * * * * * * * * //

solvers
{
    p
    {
        solver PCG;
        preconditioner DIC;
        tolerance        1e-6;
        relTol           0.01;
    }
    "U|b"
    {
        solver PBiCG;
        preconditioner DILU;
        tolerance      1e-6;
    }
}

solution
{
    implicitAdvection true;
    nOuterCorrectors 2;
    nCorrectors      2;
    nNonOrthogonalCorrectors 0;
    pRefCell 0;
    pRefValue 0;
}

// ************************************************************************* //
