/*--------------------------------*- C++ -*----------------------------------*\
| =========                 |                                                 |
| \\      /  F ield         | OpenFOAM: The Open Source CFD Toolbox           |
|  \\    /   O peration     | Version:  dev                                   |
|   \\  /    A nd           | Web:      www.OpenFOAM.org                      |
|    \\/     M anipulation  |                                                 |
\*---------------------------------------------------------------------------*/
FoamFile
{
    version     2.0;
    format      ascii;
    class       dictionary;
    location    "system";
    object      rhoDict;
}
// * * * * * * * * * * * * * * * * * * * * * * * * * * * * * * * * * * * * * //

type sinusoidal;
// c + (a_x + b_x*Foam::cos(2*M_PI*k_x*(x-phi_x)/L_x))
// * (a_y + b_y*Foam::cos(2*M_PI*k_y*(y-phi_y)/L_y))
// * (a_z + b_z*Foam::cos(2*M_PI*k_z*(z-phi_z)/L_z));
c  1;
a_x 0;
b_x 0.2;
phi_x 0;
L_x 10;
a_y 1;
a_z 1;
b_y 0;
b_z 0;

