FoamFile
{
    version         2.3;
    format          ascii;

    root            "";
    case            "";
    instance        "constant";
    local           "";

    class           dictionary;
    object          gmtDict;
}

// How to plot
// Compulsory inputs
projection "X32c/4c";
projection2D XZ;

FieldsToPlot
(
    [b rawValues -0.01 0.01 0.001 "$GMTU/colours/red_white_blue.cpt"]
    [U vectors 200 1 "black"]
    [u vectors 200 1 "black"]
    [Co contours 2 100 2 "black"]
    [Co contours 0 1 1 "black,--"]
);

separateLegend true;
//region "0/10/-0.1/1.1";
plotBoundaryDots false;
annotate "minMax 3 1.3";
