/*---------------------------------------------------------------------------*\
| =========                 |                                                 |
| \\      /  F ield         | OpenFOAM: The Open Source CFD Toolbox           |
|  \\    /   O peration     | Version:  1.4                                   |
|   \\  /    A nd           | Web:      http://www.openfoam.org               |
|    \\/     M anipulation  |                                                 |
\*---------------------------------------------------------------------------*/

FoamFile
{
    version         2.0;
    format          ascii;

    root            "";
    case            "";
    instance        "";
    local           "";

    class           dictionary;
    object          fvSchemes;
}

// * * * * * * * * * * * * * * * * * * * * * * * * * * * * * * * * * * * * * //

ddtSchemes
{
    default Euler;
}

gradSchemes
{
    default         none;
}

divSchemes
{
    default             none;
    div(phi,T)          LaxWendroff
    {
        nCorr 1;  //(>=0)
        offCentre -1;
        timeCorrector flux; // flux, advective or none
        FCTlimit false;
        //FCTmin 0;
        //FCTmax 1.00263;
    };
    MPDATA_div Gauss midPoint;
}

laplacianSchemes
{
    default         none;
}

interpolationSchemes
{
    default        none;
    MPDATA_idiv    midPoint;
}

snGradSchemes
{
    default         none;
}


// ************************************************************************* //
