/*---------------------------------------------------------------------------*\
| =========                 |                                                 |
| \\      /  F ield         | OpenFOAM: The Open Source CFD Toolbox           |
|  \\    /   O peration     | Version:  1.4                                   |
|   \\  /    A nd           | Web:      http://www.openfoam.org               |
|    \\/     M anipulation  |                                                 |
\*---------------------------------------------------------------------------*/

FoamFile
{
    version         2.0;
    format          ascii;

    root            "";
    case            "";
    instance        "";
    local           "";

    class           dictionary;
    object          environmentalProperties;
}

// * * * * * * * * * * * * * * * * * * * * * * * * * * * * * * * * * * * * * //

noTransfers false;
cloudRadiusMax     cloudRadiusMax [0 1 0 0 0] 2000;
cloudRadiusMin     cloudRadiusMin [0 1 0 0 0] 2000;
dragCoeff       1;
Ksigma Ksigma [0 2 -1 0 0] 0;
minSigma  1e-4;
// Transfer between partitions based on horizontal divergence
divTransfer 1;
wTransfer false;
buoyancyTransfer false;
bTransferDiffusivity bTransferDiffusivity [0 2 -1 0 0] 0;
bTransferTimeScale bTransferTimeScale [0 1 -1 0 0] 0;
transferAnomalies false;
transferAnomaliesb0 false;
transferAnomaliesLaplacian false;

uniformSigma false;

// ************************************************************************* //
