/*---------------------------------------------------------------------------*\
| =========                 |                                                 |
| \\      /  F ield         | OpenFOAM: The Open Source CFD Toolbox           |
|  \\    /   O peration     | Version:  1.4                                   |
|   \\  /    A nd           | Web:      http://www.openfoam.org               |
|    \\/     M anipulation  |                                                 |
\*---------------------------------------------------------------------------*/

FoamFile
{
    version         2.0;
    format          ascii;

    root            "";
    case            "";
    instance        "";
    local           "";

    class           dictionary;
    object          environmentalProperties;
}

// * * * * * * * * * * * * * * * * * * * * * * * * * * * * * * * * * * * * * //

/*
Ra = g(Tup-Tdown)/T H^3/(nu alpha) = 
Tup = 1000.5 Tup = 999.5 T = 1000
rho = 1
H = 1
mu = 1e-4
nu = 1e-4
alpha = 1e-4
Pr = 1 = nu/alpha
*/

g               g [0 1 -2 0 0 0 0] (0 0 -10);
Omega           Omega [0 0 -1 0 0 0 0] (0 0 0);

// ************************************************************************* //
