/*--------------------------------*- C++ -*----------------------------------*\
| =========                 |                                                 |
| \\      /  F ield         | OpenFOAM: The Open Source CFD Toolbox           |
|  \\    /   O peration     | Version:  2.3.0                                 |
|   \\  /    A nd           | Web:      www.OpenFOAM.org                      |
|    \\/     M anipulation  |                                                 |
\*---------------------------------------------------------------------------*/
FoamFile
{
    version     2.0;
    format      ascii;
    class       dictionary;
    object      blockMeshDict;
}
// * * * * * * * * * * * * * * * * * * * * * * * * * * * * * * * * * * * * * //

convertToMeters 1000;

vertices
(
    (0 0 0)
    (1 0 0)
    (1 1 0)
    (0 1 0)
    (0 0 3)
    (1 0 3)
    (1 1 3)
    (0 1 3)
);

blocks
(
    hex (0 1 2 3 4 5 6 7) (1 1 3000) simpleGrading (1 1 1)
);

edges
(
);

boundary
(
    ground
    {
        type            wall;
        faces           
        (
        	(0 3 2 1)
        );
    }
    top
    {
        type      patch;
        faces
        (
            (4 5 6 7)
        );
    }
    inlet
    {
        type cyclic;
        neighbourPatch outlet;
        faces
        (
            (0 3 7 4)
        );
    }
    outlet
    {
        type cyclic;
        neighbourPatch inlet;
        faces
        (
            (1 2 6 5)
        );
    }
    front
    {
        type            cyclic;
        neighbourPatch  back;
        faces
        (
            (0 4 5 1)
        );
    }
    back
    {
        type            cyclic;
        neighbourPatch  front;
        faces
        (
            (2 3 7 6)
        );
    }
);

mergePatchPairs
(
);

// ************************************************************************* //
