FoamFile
{
    version         2.3;
    format          ascii;

    root            "";
    case            "";
    instance        "constant";
    local           "";

    class           dictionary;
    object          gmtDict;
}

// How to plot
// Compulsory inputs
projection "X80c/10c";
projection2D XZ;

FieldsToPlot
(
    [convection filledContours -4e-6 4e-6 2e-7 "$GMTU/colours/red_white_blue.cpt"]
    [diffusionb contours 2e-7 4e-6 2e-7 "black"]
    [diffusionb contours -4e-6 -2e-7 2e-7 "black,15_5:0"]
    [diffusionb contours 0 100 100 "black,2_4:0"]
    [u.air vectors 100 7 "black"]
);

separateLegend true;
//region "0/10/-0.1/1.1";
plotBoundaryDots false;
annotate "minMax 3 1.3";
