FoamFile
{
    version         2.3;
    format          ascii;

    root            "";
    case            "";
    instance        "constant";
    local           "";

    class           dictionary;
    object          gmtDict;
}

// How to plot
// Compulsory inputs
projection "X80c/10c";
projection2D XZ;

FieldsToPlot
(
    [P filledContours 0 0 0 "$GMTU/colours/red_white_blue.cpt"]
    [u vectors 200 3 "black"]
);

separateLegend true;
//region "0/10/-0.1/1.1";
plotBoundaryDots false;
annotate "minMax 3 1.3";
