/*---------------------------------------------------------------------------*\
| =========                 |                                                 |
| \\      /  F ield         | OpenFOAM: The Open Source CFD Toolbox           |
|  \\    /   O peration     | Version:  1.4                                   |
|   \\  /    A nd           | Web:      http://www.openfoam.org               |
|    \\/     M anipulation  |                                                 |
\*---------------------------------------------------------------------------*/

FoamFile
{
    version         2.0;
    format          ascii;

    root            "";
    case            "";
    instance        "";
    local           "";

    class           dictionary;
    object          transferProperties;
}

// * * * * * * * * * * * * * * * * * * * * * * * * * * * * * * * * * * * * * //

fluids 2 (down up);
transferType dwdzTransfer;
transferScale 0; //0.2;
entRate       1;
detrainRate   1;
mixingTransfer 0.2;
minSigma  2(0.1 0.1);

wTransferScale 2;
bTransferScale 1;

gamma    gamma    [0 2 -1 0 0] 0.01; //0.0091696942; //(gammaHat = 1)
dragRadius dragRadius [0 1 0 0 0] 0;

// ************************************************************************* //
