/*--------------------------------*- C++ -*----------------------------------*\
| =========                 |                                                 |
| \\      /  F ield         | OpenFOAM: The Open Source CFD Toolbox           |
|  \\    /   O peration     | Version:  2.3.0                                 |
|   \\  /    A nd           | Web:      www.OpenFOAM.org                      |
|    \\/     M anipulation  |                                                 |
\*---------------------------------------------------------------------------*/
FoamFile
{
    version     2.0;
    format      ascii;
    class       dictionary;
    location    "system";
    object      controlDict;
}
// * * * * * * * * * * * * * * * * * * * * * * * * * * * * * * * * * * * * * //

application     stratifiedBoundaryFoam;

startFrom       startTime;

startTime       0;

stopAt          endTime;

endTime         108000; //172800; //115200; //360000; //356400; //349200; //345600; //367200; //

deltaT          10;

writeControl    runTime;

writeInterval   3600;

purgeWrite      0;

writeFormat     binary;

writePrecision  6;

writeCompression off;

timeFormat      general;

timePrecision   6;

runTimeModifiable false;

graphFormat     raw;

libs
(
    "libmoreincompressibleTurbulence.so"
    "libatmosphericModels.so"
);

// ************************************************************************* //
