/*---------------------------------------------------------------------------*\
| =========                 |                                                 |
| \\      /  F ield         | OpenFOAM: The Open Source CFD Toolbox           |
|  \\    /   O peration     | Version:  1.4                                   |
|   \\  /    A nd           | Web:      http://www.openfoam.org               |
|    \\/     M anipulation  |                                                 |
\*---------------------------------------------------------------------------*/

FoamFile
{
    version         2.0;
    format          ascii;

    root            "";
    case            "";
    instance        "";
    local           "";

    class           dictionary;
    object          environmentalProperties;
}

// * * * * * * * * * * * * * * * * * * * * * * * * * * * * * * * * * * * * * //

Nsquared        Nsquared [0 0 -2 0 0] 0;
nu       nu       [0 2 -1 0 0] 707;
alpha    alpha    [0 2 -1 0 0] 1e3;
//Q        Q        [0 1 -3 0 0] -3.858e-7;
//g               g [0 1 -2 0 0 0 0] (0 0 -10);
//Omega           Omega [0 0 -1 0 0 0 0] (0 0 0);

// ************************************************************************* //
