FoamFile
{
    version         2.2;
    format          ascii;

    root            "";
    case            "";
    instance        "constant";
    local           "";

    class           dictionary;
    object          gmtDict;
}

// How to plot
// Compulsory inputs
projection "X10c/8c";
projection2D XZ;
boundaryPatch ground;

FieldsToPlot
2
(
    [Uz contours 0.025 3 0.05 "black"]
    [Uz contours -3.025 -0.025 0.05 "black,10_10:0"]
);

region "-20e3/20e3/0/12e3";
boundaryMarks "10000/5000";
plotBoundaryDots false;

