/*---------------------------------------------------------------------------*\
| =========                 |                                                 |
| \\      /  F ield         | OpenFOAM: The Open Source CFD Toolbox           |
|  \\    /   O peration     | Version:  1.4                                   |
|   \\  /    A nd           | Web:      http://www.openfoam.org               |
|    \\/     M anipulation  |                                                 |
\*---------------------------------------------------------------------------*/

FoamFile
{
    version         2.0;
    format          ascii;

    root            "";
    case            "";
    instance        "";
    local           "";

    class           dictionary;
    object          transferProperties;
}

// * * * * * * * * * * * * * * * * * * * * * * * * * * * * * * * * * * * * * //

noTransfers false;
// Diffusion coefficient for sigma
Ksigma Ksigma [0 2 -1 0 0] 0;
// Transfer between partitions based on horizontal divergence
divTransfer 1;
// Transfer w=0 if sigma=1
wTransfer0  true;
// Mininum allowable sigma in any fluid
minSigma  1e-9;
// Fix transfers so that sigma is read in and kept fixed at locations given in
// constant/transferLocation
uniformSigma false;
// Fluids transferred are a linear combination of donating and receiving fluids
transferAnomaliesLinComb false;
// Transfer buoyancy anomalies based on constant factor times mean buoyancy
transferAnomaliesMeanFactor 0;

// ************************************************************************* //
