/*---------------------------------------------------------------------------*\
| =========                 |                                                 |
| \\      /  F ield         | OpenFOAM: The Open Source CFD Toolbox           |
|  \\    /   O peration     | Version:  1.4                                   |
|   \\  /    A nd           | Web:      http://www.openfoam.org               |
|    \\/     M anipulation  |                                                 |
\*---------------------------------------------------------------------------*/

FoamFile
{
    version         2.0;
    format          ascii;

    root            "";
    case            "";
    instance        "";
    local           "";

    class           dictionary;
    object          controlDict;
}

// * * * * * * * * * * * * * * * * * * * * * * * * * * * * * * * * * * * * * //

application     partitionedTurbulentFoam_newCN;

startFrom       startTime;
//startFrom       latestTime;

startTime       0;

stopAt          endTime;

endTime         100;

deltaT          0.01;

writeControl    runTime;

writeInterval   2;

purgeWrite      0;

writeFormat     binary;

writePrecision  6;

writeCompression uncompressed;

timeFormat      general;

timePrecision   6;

runTimeModifiable no;

adjustTimeStep no;
maxCo          0.5;

/*functions
{
    #includeFunc  singleGraph
    #includeFunc  grad(theta)
    writeRho
    {
        type                    writeObjects;
        libs                    ("libutilityFunctionObjects.so");
        writeControl            runTime;
        writeInterval           0.5;
        objects
        ("rho");
    }
}*/

libs
(
    "libExnerTheta.so"
    "libfiniteVolumeAtmosFOAMtools.so"
    "libcompressibleTurbulenceModels.so"
    "libatmosphericModels.so"
);



// ************************************************************************* //
