FoamFile {
        version         1.4;
        format          ascii;

        root            "";
        case            "";
        instance        "constant";
        local           "";

        class           dictionary;
        object          gmtDict;
}

projection "X18c/9c";
projection2D XY;
separateLegend false;
plotBoundaryDots false;

FieldsToPlot
(
//    [T rawValues -1.025 1.025 0.05 "$GMTU/colours/red_white_blue.cpt"]
    [T contours 0 1 0.05 "black"]
    [T_analytic contours 0 1 0.05 "black"]
);

//region "0e3/450e3/0/30e3";
//boundaryMarks "100e3/10e3WSen";
separateLegend true;
