/*---------------------------------------------------------------------------*\
| =========                 |                                                 |
| \\      /  F ield         | OpenFOAM: The Open Source CFD Toolbox           |
|  \\    /   O peration     | Version:  1.4                                   |
|   \\  /    A nd           | Web:      http://www.openfoam.org               |
|    \\/     M anipulation  |                                                 |
\*---------------------------------------------------------------------------*/

FoamFile
{
    version         2.0;
    format          ascii;

    root            "";
    case            "";
    instance        "";
    local           "";

    class           dictionary;
    object          environmentalProperties;
}

// * * * * * * * * * * * * * * * * * * * * * * * * * * * * * * * * * * * * * //

nu       nu       [0 2 -1 0 0] 8.4083292038e-5;
alpha    alpha    [0 2 -1 0 0] 1.1892969171e-4;
vonKarmenKappa vonKarmenKappa [0 0 0 0 0] 0.41;
surfaceHeight surfaceHeight [0 1 0 0 0] 0;
minLength 2
(
    minLength [0 1 0 0 0] 1e-10
    minLength [0 1 0 0 0] 1e-10
);
maxLength 2
(
    maxLength [0 1 0 0 0] 0.5
    maxLength [0 1 0 0 0] 0.5
);
// Constant to get TKE dissipation from k^1.5/l
Cmu 0.22;
// Buoyancy TKE production coefficient
Cb 1.55;
// Pressure gradient TKE production coefficient
Cp 0;

// ************************************************************************* //
