/*---------------------------------------------------------------------------*\
| =========                 |                                                 |
| \\      /  F ield         | OpenFOAM: The Open Source CFD Toolbox           |
|  \\    /   O peration     | Version:  1.4                                   |
|   \\  /    A nd           | Web:      http://www.openfoam.org               |
|    \\/     M anipulation  |                                                 |
\*---------------------------------------------------------------------------*/

FoamFile
{
    version         2.0;
    format          ascii;

    root            "";
    case            "";
    instance        "";
    local           "";

    class           dictionary;
    object          environmentalProperties;
}

// * * * * * * * * * * * * * * * * * * * * * * * * * * * * * * * * * * * * * //

/*
Ra = g(Tup-Tdown)/T H^3/(nu alpha) = 
Tup = 330 Tup = 270 T = 300
rho = 1.16144
H = 1
mu = 1.8e-05
nu = 1.55e-5
alpha = 2.214e-5
Pr = 0.7 = nu/alpha
*/

g               g [0 1 -2 0 0 0 0] (0 0 -9.81);
Omega           Omega [0 0 -1 0 0 0 0] (0 0 0);

// ************************************************************************* //
