FoamFile
{
    version         2.3;
    format          ascii;

    root            "";
    case            "";
    instance        "constant";
    local           "";

    class           dictionary;
    object          gmtDict;
}

// How to plot
// Compulsory inputs
projection "X30.3c/15c";
projection2D XZ;

FieldsToPlot
(
    [none mesh "black"]
);

separateLegend true;
//region "0/10/-0.1/1.1";
plotBoundaryDots false;
annotate "minMax 3 1.3";
