FoamFile
{
    version         2.3;
    format          ascii;

    root            "";
    case            "";
    instance        "constant";
    local           "";

    class           dictionary;
    object          gmtDict;
}

// How to plot
// Compulsory inputs
projection "X30.3c/15c";
projection2D XZ;

FieldsToPlot
(
    [sigma.stable filledContours 0 2 0.1 "$GMTU/colours/white_grey.cpt"]
    [sigma.up contours 0 0.15 0.05 "1,red,10_10:0"]
    [sigma.up contours 0.2 1 0.05 "2,red"]
    [sigma.down contours 0 0.15 0.05 "1,blue,10_10:0"]
    [sigma.down contours 0.2 1 0.05 "2,blue"]
);

separateLegend true;
//region "0/10/-0.1/1.1";
plotBoundaryDots false;
annotate "minMax 3 1.3";
