FoamFile
{
    version         2.3;
    format          ascii;

    root            "";
    case            "";
    instance        "constant";
    local           "";

    class           dictionary;
    object          gmtDict;
}

// How to plot
// Compulsory inputs
projection "X30.2c/15c";
projection2D XZ;

FieldsToPlot
(

    [b.air filledContours -0.5 0.5 0.025 "$GMTU/colours/red_white_blue.cpt"]
    [b.up colouredContours -3.5e-4 3.5e-4 2e-5 "$GMTU/colours/red_white_blue.cpt"]
    [b.down colouredContours -3.5e-4 3.5e-4 2e-5 "$GMTU/colours/red_white_blue.cpt"]

    [sigma.up contours .5 1.5 1 "5,darkred"]
    [sigma.down contours .5 1.5 1 "5,navy"]

    [u.down   vectors 0.3 1 "blue"]
    [u.up     vectors 0.3 1 "red"]
    [u.stable vectors 0.3 1 "black"]
    [u.air    vectors 0.1 17 "black"]
//    [sigma.up   contours 0.5 1 0.2 "2,red"]
//    [sigma.down contours 0.5 1 0.2 "2,blue"]
//    [sigma.up   contours 0.1 0.3 0.2 "1,red,4_4:0"]
//    [sigma.down contours 0.1 0.3 0.2 "1,blue,4_4:0"]
);

separateLegend true;
//region "-10.1e3/10.1e3/0/10e3";
plotBoundaryDots false;
annotate "minMax 0 -0.01";
