/*--------------------------------*- C++ -*----------------------------------*\
| =========                 |                                                 |
| \\      /  F ield         | OpenFOAM: The Open Source CFD Toolbox           |
|  \\    /   O peration     | Version:  dev                                   |
|   \\  /    A nd           | Web:      www.OpenFOAM.org                      |
|    \\/     M anipulation  |                                                 |
\*---------------------------------------------------------------------------*/
FoamFile
{
    version     2.0;
    format      ascii;
    class       dictionary;
    location    "constant";
    object      add2dMountainDict;
}
// * * * * * * * * * * * * * * * * * * * * * * * * * * * * * * * * * * * * * //

type btf;
domainHeight 20e3;
groundOffset 0;

mountain
{
    type agnessiWitchMountain;
    peakHeight peakHeight [0 1 0 0 0] 1;
    mountainCentre (0 0.5e3 0);
    mountainHalfWidth mountainHalfWidth [0 1 0 0 0] 10e3;
};

// ************************************************************************* //
